1
    SWAT Mar 17 2015    VER 2012/Rev 636_smrt                                                            0/ 0/   0      0: 0: 0

    General Input/Output section (file.cio):                                        
    3/18/2025 12:00:00 AM ARCGIS-SWAT interface AV                                  
                                                                                    
         Number of years in run:   23
         Area of watershed:     9911.344 km2
         Random number generator cycles: 0, use default numbers

         Initial random number seed: wet/dry day prob        748932582
         Initial random number seed: radiation              1948832765
         Initial random number seed: precipitation           857034417
         Initial random number seed: 0.5 hr rainfall          67377721
         Initial random number seed: wind speed              366304404
         Initial random number seed: irrigation             1094585182
         Initial random number seed: relative humidity      1767585417
         Initial random number seed: max temperature         608439319
         Initial random number seed: min temperature         592757081

         Precipitation data used in run:
          Multiple gages read for watershed
             Daily rainfall data used

         Temperature data used in run:
          Multiple gages read for watershed

         PET method used: Hargreaves

         Rainfall/Runoff/Routing Option:
          Daily rainfall data
          Runoff estimated with curve number method
          Daily stream routing
           Variable Storage routing method
           Channel dimensions remain constant
           Subbasin algae/CBOD loadings not modeled
           In-stream nutrient transformations modeled using QUAL2E equations

         Subbasin Input Summary:
          Sub Latitude  Elev(m) #HRUs Ponds Elevbnds Wetlnd
            1    39.19   190.16     1                   
            2    39.29   207.35     1                   
            3    39.36   211.66     1                   
            4    39.44   199.39     1                   
            5    39.46   198.85     1                   
            6    39.48   190.76     1                   
            7    39.55   234.66     1                   
            8    39.60   227.03     1                   
            9    39.61   246.61     1                   
           10    39.69   250.18     1                   
           11    39.74   245.38     1                   
           12    39.77   231.73     1                   
           13    39.78   225.51     1                   
           14    39.88   267.43     1                   
           15    39.98   258.37     1                   
           16    40.06   269.75     1                   
           17    39.81   262.47     1                   
           18    40.12   281.36     1                   
           19    39.85   247.29     1                   
           20    39.86   250.21     1                   
           21    39.86   272.89     1                   
           22    40.18   289.64     1                   
           23    39.88   257.05     1                   
           24    39.95   286.15     1                   
           25    40.25   307.93     1                   
           26    39.92   306.44     1                   
           27    40.31   307.75     1                   
           28    39.59   228.29     1                   
           29    40.05   285.68     1                   
           30    40.11   286.30     1                   
           31    39.99   306.09     1                   
           32    39.62   261.12     1                   
           33    39.48   216.20     1                   
           34    40.13   289.92     1                   
           35    40.23   292.93     1                   
           36    39.64   273.26     1                   
           37    40.06   321.82     1                   
           38    40.31   320.65     1                   
           39    40.31   303.12     1                   
           40    39.70   280.40     1                   
           41    40.26   294.67     1                   
           42    40.34   311.79     1                   
           43    40.17   295.91     1                   
           44    39.76   290.76     1                   
           45    40.14   324.97     1                   
           46    39.97   240.95     1                   
           47    40.40   310.44     1                   
           48    40.17   319.32     1                   
           49    40.00   268.14     1                   
           50    39.55   263.37     1                   
           51    39.92   307.29     1                   
           52    40.30   299.42     1                   
           53    40.09   311.62     1                   
           54    39.51   267.83     1                   
           55    40.44   308.54     1                   
           56    39.82   304.15     1                   
           57    40.11   316.98     1                   
           58    40.22   331.11     1                   
           59    39.99   325.58     1                   
           60    40.51   307.23     1                   
           61    40.00   278.73     1                   
           62    40.28   314.24     1                   
           63    40.17   308.19     1                   
           64    40.13   322.80     1                   
           65    40.46   305.21     1                   
           66    40.15   324.24     1                   
           67    40.21   300.91     1                   
           68    39.79   265.73     1                   
           69    40.29   314.70     1                   
           70    39.20   239.48     1                   
           71    39.40   235.66     1                   
           72    39.48   224.12     1                   
           73    39.47   272.63     1                   
           74    39.54   266.31     1                   
           75    39.56   281.48     1                   
           76    39.67   319.87     1                   
           77    39.67   325.88     1                   
           78    39.66   284.81     1                   
           79    39.65   274.00     1                   
           80    39.69   262.48     1                   
           81    39.74   287.14     1                   
           82    39.69   329.22     1                   
           83    39.73   265.62     1                   
           84    39.73   321.10     1                   
           85    39.80   321.43     1                   
           86    39.83   302.65     1                   
           87    39.86   297.02     1                   
           88    39.85   329.80     1                   
           89    39.90   274.03     1                   
           90    39.85   288.22     1                   
           91    39.92   283.00     1                   
           92    39.92   315.38     1                   
           93    39.94   281.87     1                   
           94    39.92   327.87     1                   
           95    39.98   326.18     1                   
           96    39.94   346.23     1                   
           97    39.93   309.80     1                   
           98    40.01   294.36     1                   
           99    39.99   308.58     1                   
          100    40.04   309.82     1                   
          101    40.02   275.64     1                   
          102    40.01   320.39     1                   
          103    40.01   350.68     1                   
          104    40.05   335.16     1                   
          105    40.06   351.02     1                   
          106    40.03   325.27     1                   
          107    40.10   314.44     1                   
          108    40.09   354.21     1                   
          109    40.12   346.63     1                   
          110    40.10   348.61     1                   
          111    40.15   304.65     1                   
          112    40.09   342.04     1                   
          113    40.15   300.85     1                   
          114    40.16   336.09     1                   
          115    40.20   302.31     1                   
          116    40.19   358.23     1                   
          117    40.22   335.03     1                   
          118    40.27   315.75     1                   
          119    40.22   338.45     1                   
          120    40.24   308.60     1                   
          121    40.23   297.78     1                   
          122    40.22   314.13     1                   
          123    40.19   343.18     1                   
          124    40.27   388.15     1                   
          125    40.26   305.85     1                   
          126    40.24   333.58     1                   
          127    40.31   303.60     1                   
          128    40.31   339.99     1                   
          129    40.31   380.21     1                   
          130    40.37   313.40     1                   
          131    40.35   295.07     1                   
          132    40.37   356.53     1                   
          133    40.38   312.97     1                   
          134    40.40   299.94     1                   
          135    40.43   347.34     1                   
          136    40.47   310.45     1                   
          137    40.49   335.46     1                   
          138    40.54   317.23     1                   
          139    40.56   313.21     1                   

         HRU Input Summary Table 1:
          Sub   HRU   Area(ha) Slope SlpLgth(m) Ovrlnd_N CondII_CN TimeConc(hr) ESCO EPCO
            1      1    3932.92 0.955     100.00    0.535     73.86        2.389 0.95 1.00
            2      2   13579.75 0.730     100.00    0.535     73.86        3.552 0.95 1.00
            3      3   14610.97 0.471     100.00    0.535     59.44        3.866 0.95 1.00
            4      4    4047.82 0.252     100.00    0.535     73.86        4.941 0.95 1.00
            5      5     359.03 0.338     100.00    0.535     73.86        2.061 0.95 1.00
            6      6     358.01 0.166     100.00    0.535     62.05        1.993 0.95 1.00
            7      7    8162.22 0.405     100.00    0.535     73.86        3.290 0.95 1.00
            8      8    3790.23 0.199     100.00    0.535     73.86        3.873 0.95 1.00
            9      9    5028.27 0.444     100.00    0.535     59.44        3.351 0.95 1.00
           10     10    4799.73 0.292     100.00    0.535     59.44        2.617 0.95 1.00
           11     11    5385.18 0.332     100.00    0.535     59.44        3.124 0.95 1.00
           12     12     252.71 0.219     100.00    0.535     59.44        1.399 0.95 1.00
           13     13     224.22 0.133     100.00    0.535     59.44        2.071 0.95 1.00
           14     14   13291.78 0.265     100.00    0.535     59.44        5.772 0.95 1.00
           15     15    1083.08 0.179     100.00    0.535     73.86        2.346 0.95 1.00
           16     16    4959.33 0.120     100.00    0.535     73.86        4.561 0.95 1.00
           17     17   14825.82 0.226     100.00    0.535     59.44        4.539 0.95 1.00
           18     18    6788.66 0.146     100.00    0.535     73.86        3.511 0.95 1.00
           19     19      18.57 0.312     100.00    0.535     73.86        1.300 0.95 1.00
           20     20     145.68 0.153     100.00    0.535     73.86        1.799 0.95 1.00
           21     21    9652.58 0.279     100.00    0.535     59.44        3.937 0.95 1.00
           22     22    3377.84 0.226     100.00    0.535     73.86        2.697 0.95 1.00
           23     23     673.60 0.093     100.00    0.535     73.86        4.058 0.95 1.00
           24     24    6157.24 0.166     100.00    0.535     73.86        3.303 0.95 1.00
           25     25    7014.29 0.272     100.00    0.535     73.86        4.256 0.95 1.00
           26     26    8933.33 0.232     100.00    0.535     73.86        3.911 0.95 1.00
           27     27     558.70 0.332     100.00    0.535     59.44        1.562 0.95 1.00
           28     28    1628.56 0.398     100.00    0.535     73.86        2.560 0.95 1.00
           29     29    8467.03 0.153     100.00    0.535     73.86        4.170 0.95 1.00
           30     30    2092.34 0.113     100.00    0.535     73.86        3.131 0.95 1.00
           31     31    7772.42 0.318     100.00    0.535     73.86        3.960 0.95 1.00
           32     32    4442.90 0.438     100.00    0.535     73.86        2.728 0.95 1.00
           33     33    6672.89 0.305     100.00    0.535     73.86        3.488 0.95 1.00
           34     34    1498.15 0.133     100.00    0.535     73.86        2.514 0.95 1.00
           35     35    4402.52 0.226     100.00    0.535     73.86        3.388 0.95 1.00
           36     36    4291.48 0.358     100.00    0.535     73.86        2.334 0.95 1.00
           37     37    9087.51 0.246     100.00    0.535     73.86        3.596 0.95 1.00
           38     38   14134.12 0.213     100.00    0.535     73.86        5.377 0.95 1.00
           39     39      21.72 0.438     100.00    0.535     73.86        0.894 0.95 1.00
           40     40    3150.87 0.219     100.00    0.535     73.86        3.310 0.95 1.00
           41     41    2651.98 0.292     100.00    0.535     73.86        2.702 0.95 1.00
           42     42    3346.04 0.192     100.00    0.535     73.86        3.485 0.95 1.00
           43     43    9138.90 0.172     100.00    0.535     73.86        5.760 0.95 1.00
           44     44    5800.64 0.179     100.00    0.535     73.86        3.810 0.95 1.00
           45     45   11350.94 0.179     100.00    0.535     73.86        4.680 0.95 1.00
           46     46     157.09 0.100     100.00    0.535     73.86        2.172 0.95 1.00
           47     47    5370.39 0.159     100.00    0.535     73.86        4.833 0.95 1.00
           48     48    1070.41 0.179     100.00    0.535     73.86        2.362 0.95 1.00
           49     49    3816.20 0.159     100.00    0.535     73.86        3.147 0.95 1.00
           50     50   11071.08 0.411     100.00    0.535     73.86        3.876 0.95 1.00
           51     51    4929.51 0.252     100.00    0.535     59.44        3.183 0.95 1.00
           52     52    6956.92 0.226     100.00    0.535     73.86        4.646 0.95 1.00
           53     53   16730.85 0.146     100.00    0.535     73.86        9.010 0.95 1.00
           54     54   20860.99 0.345     100.00    0.535     73.86        5.767 0.95 1.00
           55     55    7146.19 0.139     100.00    0.535     73.86        4.601 0.95 1.00
           56     56    4967.83 0.226     100.00    0.535     73.86        3.608 0.95 1.00
           57     57    1156.74 0.139     100.00    0.535     73.86        2.767 0.95 1.00
           58     58    3801.96 0.192     100.00    0.535     73.86        2.705 0.95 1.00
           59     59    4903.38 0.219     100.00    0.535     73.86        3.406 0.95 1.00
           60     60    4872.21 0.080     100.00    0.535     73.86        5.713 0.95 1.00
           61     61     302.76 0.265     100.00    0.535     73.86        1.688 0.95 1.00
           62     62    1478.16 0.232     100.00    0.535     73.86        2.474 0.95 1.00
           63     63   10980.97 0.126     100.00    0.535     73.86        6.682 0.95 1.00
           64     64    2006.32 0.179     100.00    0.535     73.86        2.740 0.95 1.00
           65     65    4398.35 0.080     100.00    0.535     73.86        5.348 0.95 1.00
           66     66     193.13 0.146     100.00    0.535     73.86        1.643 0.95 1.00
           67     67    1333.35 0.159     100.00    0.535     73.86        2.256 0.95 1.00
           68     68    6306.93 0.219     100.00    0.535     59.44        3.193 0.95 1.00
           69     69     997.06 0.265     100.00    0.535     73.86        1.899 0.95 1.00
           70     70    6788.42 0.936     100.00    0.535     59.44        1.935 0.95 1.00
           71     71    6729.39 0.325     100.00    0.535     59.44        2.871 0.95 1.00
           72     72   10532.93 0.265     100.00    0.535     59.44        3.326 0.95 1.00
           73     73   27514.68 0.318     100.00    0.535     73.86        8.129 0.95 1.00
           74     74   13556.38 0.299     100.00    0.535     73.86        3.930 0.95 1.00
           75     75   12235.85 0.338     100.00    0.535     73.86        3.825 0.95 1.00
           76     76    5637.89 0.312     100.00    0.535     73.86        3.284 0.95 1.00
           77     77    7762.42 0.126     100.00    0.535     73.86        6.678 0.95 1.00
           78     78    5592.09 0.219     100.00    0.535     73.86        2.537 0.95 1.00
           79     79    8187.64 0.312     100.00    0.535     59.44        3.115 0.95 1.00
           80     80    6155.98 0.199     100.00    0.535     73.86        3.597 0.95 1.00
           81     81    6132.21 0.199     100.00    0.535     73.86        4.810 0.95 1.00
           82     82   14168.04 0.219     100.00    0.535     73.86        5.615 0.95 1.00
           83     83   13441.08 0.172     100.00    0.535     73.86        4.771 0.95 1.00
           84     84   18507.84 0.206     100.00    0.535     73.86        5.966 0.95 1.00
           85     85    8860.06 0.206     100.00    0.535     73.86        5.386 0.95 1.00
           86     86    6454.18 0.172     100.00    0.535     73.86        4.506 0.95 1.00
           87     87    6347.62 0.172     100.00    0.535     73.86        3.535 0.95 1.00
           88     88    7599.35 0.166     100.00    0.535     73.86        5.365 0.95 1.00
           89     89    4667.98 0.172     100.00    0.535     73.86        3.796 0.95 1.00
           90     90    8595.78 0.219     100.00    0.535     73.86        4.398 0.95 1.00
           91     91    4757.31 0.146     100.00    0.535     73.86        4.780 0.95 1.00
           92     92   10723.30 0.126     100.00    0.535     73.86        5.284 0.95 1.00
           93     93    5487.34 0.133     100.00    0.535     73.86        2.794 0.95 1.00
           94     94   11684.16 0.120     100.00    0.535     73.86        5.732 0.95 1.00
           95     95    6942.28 0.153     100.00    0.535     73.86        4.596 0.95 1.00
           96     96    9393.97 0.226     100.00    0.535     73.86        4.080 0.95 1.00
           97     97    6788.34 0.060     100.00    0.535     73.86        5.218 0.95 1.00
           98     98    7282.35 0.186     100.00    0.535     73.86        4.151 0.95 1.00
           99     99   10337.59 0.086     100.00    0.535     73.86        5.378 0.95 1.00
          100    100   12413.09 0.053     100.00    0.535     73.86        7.234 0.95 1.00
          101    101    8557.30 0.086     100.00    0.535     73.86        3.689 0.95 1.00
          102    102   12176.51 0.186     100.00    0.535     73.86        6.563 0.95 1.00
          103    103    7304.85 0.352     100.00    0.535     73.86        3.149 0.95 1.00
          104    104    6618.50 0.186     100.00    0.535     73.86        4.959 0.95 1.00
          105    105    6399.24 0.226     100.00    0.535     73.86        3.996 0.95 1.00
          106    106    6554.83 0.199     100.00    0.535     73.86        5.576 0.95 1.00
          107    107   15707.11 0.133     100.00    0.535     73.86        6.666 0.95 1.00
          108    108   12294.72 0.206     100.00    0.535     73.86        4.725 0.95 1.00
          109    109    7264.01 0.325     100.00    0.535     73.86        4.176 0.95 1.00
          110    110    6479.75 0.120     100.00    0.535     73.86        5.107 0.95 1.00
          111    111    6918.67 0.106     100.00    0.535     73.86        5.573 0.95 1.00
          112    112    5816.07 0.139     100.00    0.535     73.86        4.453 0.95 1.00
          113    113    4767.38 0.146     100.00    0.535     73.86        4.928 0.95 1.00
          114    114    4634.30 0.133     100.00    0.535     73.86        5.128 0.95 1.00
          115    115    4656.96 0.133     100.00    0.535     73.86        4.319 0.95 1.00
          116    116   10961.14 0.279     100.00    0.535     73.86        4.004 0.95 1.00
          117    117    6619.13 0.172     100.00    0.535     73.86        3.526 0.95 1.00
          118    118    4718.11 0.133     100.00    0.535     73.86        4.406 0.95 1.00
          119    119    7927.30 0.206     100.00    0.535     73.86        4.964 0.95 1.00
          120    120    5197.72 0.126     100.00    0.535     73.86        4.248 0.95 1.00
          121    121    6905.92 0.126     100.00    0.535     73.86        3.883 0.95 1.00
          122    122   13183.96 0.100     100.00    0.535     73.86        5.950 0.95 1.00
          123    123    4721.50 0.100     100.00    0.535     73.86        4.857 0.95 1.00
          124    124    4632.57 0.464     100.00    0.535     73.86        3.056 0.95 1.00
          125    125    9910.87 0.120     100.00    0.535     73.86        5.984 0.95 1.00
          126    126    6029.43 0.226     100.00    0.535     73.86        3.848 0.95 1.00
          127    127    9567.50 0.172     100.00    0.535     73.86        4.633 0.95 1.00
          128    128    9228.77 0.305     100.00    0.535     73.86        4.119 0.95 1.00
          129    129   10380.09 0.498     100.00    0.535     73.86        3.875 0.95 1.00
          130    130    7455.80 0.166     100.00    0.535     73.86        6.078 0.95 1.00
          131    131   15440.24 0.093     100.00    0.535     73.86        6.783 0.95 1.00
          132    132   10757.93 0.265     100.00    0.535     73.86        4.601 0.95 1.00
          133    133    7343.57 0.093     100.00    0.535     73.86        5.795 0.95 1.00
          134    134   21515.23 0.113     100.00    0.535     73.86        7.786 0.95 1.00
          135    135    4575.67 0.232     100.00    0.535     73.86        4.217 0.95 1.00
          136    136    9251.52 0.093     100.00    0.535     73.86        5.298 0.95 1.00
          137    137   13377.80 0.192     100.00    0.535     73.86        4.937 0.95 1.00
          138    138    7112.35 0.113     100.00    0.535     73.86        6.577 0.95 1.00
          139    139    9121.43 0.113     100.00    0.535     73.86        6.164 0.95 1.00

         HRU CN Input Summary Table:
          Sub   HRU   Area(ha)  LULC      Soil    CN1    CN2    CN3  Wilting Point (mm H2O)  Field Capacity (mm H2O)  Saturation (mm H2O)
            1      1    3932.92  BERM  Be1-2c-4   55.5   73.9   88.1                   129.6                    180.0                368.5
            2      2   13579.75  BERM  Lo11-2ab   55.5   73.9   88.1                   158.8                    160.0                286.5
            3      3   14610.97  TUMI  Lo13-2a-   39.9   59.4   78.1                   158.5                    180.0                313.2
            4      4    4047.82  BERM  Lo13-2a-   55.5   73.9   88.1                   158.5                    180.0                313.2
            5      5     359.03  BERM  Lo13-2a-   55.5   73.9   88.1                   158.5                    180.0                313.2
            6      6     358.01  FODB  Lo13-2a-   42.6   62.1   80.1                   158.5                    180.0                313.2
            7      7    8162.22  BERM  Lo13-2a-   55.5   73.9   88.1                   158.5                    180.0                313.2
            8      8    3790.23  BERM  Lo13-2a-   55.5   73.9   88.1                   158.5                    180.0                313.2
            9      9    5028.27  TUMI  Lo13-2a-   39.9   59.4   78.1                   158.5                    180.0                313.2
           10     10    4799.73  TUMI  Lo13-2a-   39.9   59.4   78.1                   158.5                    180.0                313.2
           11     11    5385.18  TUMI  Lo13-2a-   39.9   59.4   78.1                   158.5                    180.0                313.2
           12     12     252.71  TUMI  Lo13-2a-   39.9   59.4   78.1                   158.5                    180.0                313.2
           13     13     224.22  TUBG  Lo13-2a-   39.9   59.4   78.1                   158.5                    180.0                313.2
           14     14   13291.78  TUWO  Lo13-2a-   39.9   59.4   78.1                   158.5                    180.0                313.2
           15     15    1083.08  BERM  Lo13-2a-   55.5   73.9   88.1                   158.5                    180.0                313.2
           16     16    4959.33  BERM  Lo13-2a-   55.5   73.9   88.1                   158.5                    180.0                313.2
           17     17   14825.82  TUWO  Lo13-2a-   39.9   59.4   78.1                   158.5                    180.0                313.2
           18     18    6788.66  BERM  Lo13-2a-   55.5   73.9   88.1                   158.5                    180.0                313.2
           19     19      18.57  BERM  Lo13-2a-   55.5   73.9   88.1                   158.5                    180.0                313.2
           20     20     145.68  BERM  Lo13-2a-   55.5   73.9   88.1                   158.5                    180.0                313.2
           21     21    9652.58  TUWO  Lo13-2a-   39.9   59.4   78.1                   158.5                    180.0                313.2
           22     22    3377.84  BERM  Lo13-2a-   55.5   73.9   88.1                   158.5                    180.0                313.2
           23     23     673.60  BERM  Lo13-2a-   55.5   73.9   88.1                   158.5                    180.0                313.2
           24     24    6157.24  BERM  Lo13-2a-   55.5   73.9   88.1                   158.5                    180.0                313.2
           25     25    7014.29  BERM  Lo13-2a-   55.5   73.9   88.1                   158.5                    180.0                313.2
           26     26    8933.33  BERM  Lo13-2a-   55.5   73.9   88.1                   158.5                    180.0                313.2
           27     27     558.70  TUMI  Lo13-2a-   39.9   59.4   78.1                   158.5                    180.0                313.2
           28     28    1628.56  BERM  Lo13-2a-   55.5   73.9   88.1                   158.5                    180.0                313.2
           29     29    8467.03  BERM  Lo13-2a-   55.5   73.9   88.1                   158.5                    180.0                313.2
           30     30    2092.34  BERM  Lo13-2a-   55.5   73.9   88.1                   158.5                    180.0                313.2
           31     31    7772.42  BERM  Lo13-2a-   55.5   73.9   88.1                   158.5                    180.0                313.2
           32     32    4442.90  BERM  Lo13-2a-   55.5   73.9   88.1                   158.5                    180.0                313.2
           33     33    6672.89  BERM  Lo13-2a-   55.5   73.9   88.1                   158.5                    180.0                313.2
           34     34    1498.15  BERM  Lo13-2a-   55.5   73.9   88.1                   158.5                    180.0                313.2
           35     35    4402.52  BERM  Lo13-2a-   55.5   73.9   88.1                   158.5                    180.0                313.2
           36     36    4291.48  BERM  Lo13-2a-   55.5   73.9   88.1                   158.5                    180.0                313.2
           37     37    9087.51  BERM  Lo13-2a-   55.5   73.9   88.1                   158.5                    180.0                313.2
           38     38   14134.12  BERM  Lo13-2a-   55.5   73.9   88.1                   158.5                    180.0                313.2
           39     39      21.72  BERM  Lo13-2a-   55.5   73.9   88.1                   158.5                    180.0                313.2
           40     40    3150.87  BERM  Lo13-2a-   55.5   73.9   88.1                   158.5                    180.0                313.2
           41     41    2651.98  BERM  Lo13-2a-   55.5   73.9   88.1                   158.5                    180.0                313.2
           42     42    3346.04  BERM  Lo13-2a-   55.5   73.9   88.1                   158.5                    180.0                313.2
           43     43    9138.90  BERM  Lo13-2a-   55.5   73.9   88.1                   158.5                    180.0                313.2
           44     44    5800.64  BERM  Lo13-2a-   55.5   73.9   88.1                   158.5                    180.0                313.2
           45     45   11350.94  BERM  Lo13-2a-   55.5   73.9   88.1                   158.5                    180.0                313.2
           46     46     157.09  BERM  Lo13-2a-   55.5   73.9   88.1                   158.5                    180.0                313.2
           47     47    5370.39  BERM  Lo13-2a-   55.5   73.9   88.1                   158.5                    180.0                313.2
           48     48    1070.41  BERM  Lo13-2a-   55.5   73.9   88.1                   158.5                    180.0                313.2
           49     49    3816.20  BERM  Lo13-2a-   55.5   73.9   88.1                   158.5                    180.0                313.2
           50     50   11071.08  BERM  Lo13-2a-   55.5   73.9   88.1                   158.5                    180.0                313.2
           51     51    4929.51  TUMI  Lo13-2a-   39.9   59.4   78.1                   158.5                    180.0                313.2
           52     52    6956.92  BERM  Lo13-2a-   55.5   73.9   88.1                   158.5                    180.0                313.2
           53     53   16730.85  BERM  Lo13-2a-   55.5   73.9   88.1                   158.5                    180.0                313.2
           54     54   20860.99  BERM  Lo13-2a-   55.5   73.9   88.1                   158.5                    180.0                313.2
           55     55    7146.19  BERM  Lo13-2a-   55.5   73.9   88.1                   158.5                    180.0                313.2
           56     56    4967.83  BERM  Lo13-2a-   55.5   73.9   88.1                   158.5                    180.0                313.2
           57     57    1156.74  BERM  Lo13-2a-   55.5   73.9   88.1                   158.5                    180.0                313.2
           58     58    3801.96  BERM  Lo13-2a-   55.5   73.9   88.1                   158.5                    180.0                313.2
           59     59    4903.38  BERM  Lo13-2a-   55.5   73.9   88.1                   158.5                    180.0                313.2
           60     60    4872.21  BERM  Lo13-2a-   55.5   73.9   88.1                   158.5                    180.0                313.2
           61     61     302.76  BERM  Lo13-2a-   55.5   73.9   88.1                   158.5                    180.0                313.2
           62     62    1478.16  BERM  Lo13-2a-   55.5   73.9   88.1                   158.5                    180.0                313.2
           63     63   10980.97  BERM  Lo13-2a-   55.5   73.9   88.1                   158.5                    180.0                313.2
           64     64    2006.32  BERM  Lo13-2a-   55.5   73.9   88.1                   158.5                    180.0                313.2
           65     65    4398.35  BERM  Lo13-2a-   55.5   73.9   88.1                   158.5                    180.0                313.2
           66     66     193.13  BERM  Lo13-2a-   55.5   73.9   88.1                   158.5                    180.0                313.2
           67     67    1333.35  BERM  Lo13-2a-   55.5   73.9   88.1                   158.5                    180.0                313.2
           68     68    6306.93  TUMI  Lo13-2a-   39.9   59.4   78.1                   158.5                    180.0                313.2
           69     69     997.06  BERM  Lo13-2a-   55.5   73.9   88.1                   158.5                    180.0                313.2
           70     70    6788.42  TUWO  Lo11-2ab   39.9   59.4   78.1                   158.8                    160.0                286.5
           71     71    6729.39  TUWO  Lo13-2a-   39.9   59.4   78.1                   158.5                    180.0                313.2
           72     72   10532.93  TUMI  Lo13-2a-   39.9   59.4   78.1                   158.5                    180.0                313.2
           73     73   27514.68  BERM  Lo13-2a-   55.5   73.9   88.1                   158.5                    180.0                313.2
           74     74   13556.38  BERM  Lo13-2a-   55.5   73.9   88.1                   158.5                    180.0                313.2
           75     75   12235.85  BERM  Lo13-2a-   55.5   73.9   88.1                   158.5                    180.0                313.2
           76     76    5637.89  BERM  Lo13-2a-   55.5   73.9   88.1                   158.5                    180.0                313.2
           77     77    7762.42  BERM  Lo13-2a-   55.5   73.9   88.1                   158.5                    180.0                313.2
           78     78    5592.09  BERM  Lo13-2a-   55.5   73.9   88.1                   158.5                    180.0                313.2
           79     79    8187.64  TUMI  Lo13-2a-   39.9   59.4   78.1                   158.5                    180.0                313.2
           80     80    6155.98  BERM  Lo13-2a-   55.5   73.9   88.1                   158.5                    180.0                313.2
           81     81    6132.21  BERM  Lo13-2a-   55.5   73.9   88.1                   158.5                    180.0                313.2
           82     82   14168.04  BERM  Lo13-2a-   55.5   73.9   88.1                   158.5                    180.0                313.2
           83     83   13441.08  BERM  Lo13-2a-   55.5   73.9   88.1                   158.5                    180.0                313.2
           84     84   18507.84  BERM  Lo13-2a-   55.5   73.9   88.1                   158.5                    180.0                313.2
           85     85    8860.06  BERM  Lo13-2a-   55.5   73.9   88.1                   158.5                    180.0                313.2
           86     86    6454.18  BERM  Lo13-2a-   55.5   73.9   88.1                   158.5                    180.0                313.2
           87     87    6347.62  BERM  Lo13-2a-   55.5   73.9   88.1                   158.5                    180.0                313.2
           88     88    7599.35  BERM  Lo13-2a-   55.5   73.9   88.1                   158.5                    180.0                313.2
           89     89    4667.98  BERM  Lo13-2a-   55.5   73.9   88.1                   158.5                    180.0                313.2
           90     90    8595.78  BERM  Lo13-2a-   55.5   73.9   88.1                   158.5                    180.0                313.2
           91     91    4757.31  BERM  Lo13-2a-   55.5   73.9   88.1                   158.5                    180.0                313.2
           92     92   10723.30  BERM  Lo13-2a-   55.5   73.9   88.1                   158.5                    180.0                313.2
           93     93    5487.34  BERM  Lo13-2a-   55.5   73.9   88.1                   158.5                    180.0                313.2
           94     94   11684.16  BERM  Lo13-2a-   55.5   73.9   88.1                   158.5                    180.0                313.2
           95     95    6942.28  BERM  Lo13-2a-   55.5   73.9   88.1                   158.5                    180.0                313.2
           96     96    9393.97  BERM  Lo13-2a-   55.5   73.9   88.1                   158.5                    180.0                313.2
           97     97    6788.34  BERM  Lo13-2a-   55.5   73.9   88.1                   158.5                    180.0                313.2
           98     98    7282.35  BERM  Lo13-2a-   55.5   73.9   88.1                   158.5                    180.0                313.2
           99     99   10337.59  BERM  Lo13-2a-   55.5   73.9   88.1                   158.5                    180.0                313.2
          100    100   12413.09  BERM  Lo13-2a-   55.5   73.9   88.1                   158.5                    180.0                313.2
          101    101    8557.30  BERM  Lo13-2a-   55.5   73.9   88.1                   158.5                    180.0                313.2
          102    102   12176.51  BERM  Lo13-2a-   55.5   73.9   88.1                   158.5                    180.0                313.2
          103    103    7304.85  BERM  Lo13-2a-   55.5   73.9   88.1                   158.5                    180.0                313.2
          104    104    6618.50  BERM  Lo13-2a-   55.5   73.9   88.1                   158.5                    180.0                313.2
          105    105    6399.24  BERM  Lo13-2a-   55.5   73.9   88.1                   158.5                    180.0                313.2
          106    106    6554.83  BERM  Lo13-2a-   55.5   73.9   88.1                   158.5                    180.0                313.2
          107    107   15707.11  BERM  Lo13-2a-   55.5   73.9   88.1                   158.5                    180.0                313.2
          108    108   12294.72  BERM  Lo13-2a-   55.5   73.9   88.1                   158.5                    180.0                313.2
          109    109    7264.01  BERM  Lo13-2a-   55.5   73.9   88.1                   158.5                    180.0                313.2
          110    110    6479.75  BERM  Lo13-2a-   55.5   73.9   88.1                   158.5                    180.0                313.2
          111    111    6918.67  BERM  Lo13-2a-   55.5   73.9   88.1                   158.5                    180.0                313.2
          112    112    5816.07  BERM  Lo13-2a-   55.5   73.9   88.1                   158.5                    180.0                313.2
          113    113    4767.38  BERM  Lo13-2a-   55.5   73.9   88.1                   158.5                    180.0                313.2
          114    114    4634.30  BERM  Lo13-2a-   55.5   73.9   88.1                   158.5                    180.0                313.2
          115    115    4656.96  BERM  Lo13-2a-   55.5   73.9   88.1                   158.5                    180.0                313.2
          116    116   10961.14  BERM  Lo13-2a-   55.5   73.9   88.1                   158.5                    180.0                313.2
          117    117    6619.13  BERM  Lo13-2a-   55.5   73.9   88.1                   158.5                    180.0                313.2
          118    118    4718.11  BERM  Lo13-2a-   55.5   73.9   88.1                   158.5                    180.0                313.2
          119    119    7927.30  BERM  Lo13-2a-   55.5   73.9   88.1                   158.5                    180.0                313.2
          120    120    5197.72  BERM  Lo13-2a-   55.5   73.9   88.1                   158.5                    180.0                313.2
          121    121    6905.92  BERM  Lo13-2a-   55.5   73.9   88.1                   158.5                    180.0                313.2
          122    122   13183.96  BERM  Lo13-2a-   55.5   73.9   88.1                   158.5                    180.0                313.2
          123    123    4721.50  BERM  Lo13-2a-   55.5   73.9   88.1                   158.5                    180.0                313.2
          124    124    4632.57  BERM  Lo13-2a-   55.5   73.9   88.1                   158.5                    180.0                313.2
          125    125    9910.87  BERM  Lo13-2a-   55.5   73.9   88.1                   158.5                    180.0                313.2
          126    126    6029.43  BERM  Lo13-2a-   55.5   73.9   88.1                   158.5                    180.0                313.2
          127    127    9567.50  BERM  Lo13-2a-   55.5   73.9   88.1                   158.5                    180.0                313.2
          128    128    9228.77  BERM  Lo13-2a-   55.5   73.9   88.1                   158.5                    180.0                313.2
          129    129   10380.09  BERM  Lo13-2a-   55.5   73.9   88.1                   158.5                    180.0                313.2
          130    130    7455.80  BERM  Lo13-2a-   55.5   73.9   88.1                   158.5                    180.0                313.2
          131    131   15440.24  BERM  Lo13-2a-   55.5   73.9   88.1                   158.5                    180.0                313.2
          132    132   10757.93  BERM  Lo13-2a-   55.5   73.9   88.1                   158.5                    180.0                313.2
          133    133    7343.57  BERM  Lo13-2a-   55.5   73.9   88.1                   158.5                    180.0                313.2
          134    134   21515.23  BERM  Lo13-2a-   55.5   73.9   88.1                   158.5                    180.0                313.2
          135    135    4575.67  BERM  Lo13-2a-   55.5   73.9   88.1                   158.5                    180.0                313.2
          136    136    9251.52  BERM  Lo13-2a-   55.5   73.9   88.1                   158.5                    180.0                313.2
          137    137   13377.80  BERM  Lo13-2a-   55.5   73.9   88.1                   158.5                    180.0                313.2
          138    138    7112.35  BERM  Lo13-2a-   55.5   73.9   88.1                   158.5                    180.0                313.2
          139    139    9121.43  BERM  Lo13-2a-   55.5   73.9   88.1                   158.5                    180.0                313.2

         HRU Input Summary Table 2:
          Sub   HRU   Area(ha)         SoilName Hydgrp MaxRtDpth(mm) Albedo USLE_K USLE_P USLE_LS ProfileAWC(mm) IniSoilH2O(mm)
            1      1    3932.92 Be1-2c-4650        D           880.00   0.10   0.29   1.00   85.11    180.000         90.000
            2      2   13579.75 Lo11-2abc-4894     D           890.00   0.10   0.30   1.00   63.00    160.000         80.000
            3      3   14610.97 Lo13-2a-4896       D          1000.00   0.15   0.29   1.00   34.36    180.000         90.000
            4      4    4047.82 Lo13-2a-4896       D          1000.00   0.15   0.29   1.00   12.58    180.000         90.000
            5      5     359.03 Lo13-2a-4896       D          1000.00   0.15   0.29   1.00   20.40    180.000         90.000
            6      6     358.01 Lo13-2a-4896       D          1000.00   0.15   0.29   1.00    6.33    180.000         90.000
            7      7    8162.22 Lo13-2a-4896       D          1000.00   0.15   0.29   1.00   27.13    180.000         90.000
            8      8    3790.23 Lo13-2a-4896       D          1000.00   0.15   0.29   1.00    8.51    180.000         90.000
            9      9    5028.27 Lo13-2a-4896       D          1000.00   0.15   0.29   1.00   31.40    180.000         90.000
           10     10    4799.73 Lo13-2a-4896       D          1000.00   0.15   0.29   1.00   16.00    180.000         90.000
           11     11    5385.18 Lo13-2a-4896       D          1000.00   0.15   0.29   1.00   19.73    180.000         90.000
           12     12     252.71 Lo13-2a-4896       D          1000.00   0.15   0.29   1.00    9.98    180.000         90.000
           13     13     224.22 Lo13-2a-4896       D          1000.00   0.15   0.29   1.00    4.41    180.000         90.000
           14     14   13291.78 Lo13-2a-4896       D          1000.00   0.15   0.29   1.00   13.68    180.000         90.000
           15     15    1083.08 Lo13-2a-4896       D          1000.00   0.15   0.29   1.00    7.16    180.000         90.000
           16     16    4959.33 Lo13-2a-4896       D          1000.00   0.15   0.29   1.00    3.73    180.000         90.000
           17     17   14825.82 Lo13-2a-4896       D          1000.00   0.15   0.29   1.00   10.48    180.000         90.000
           18     18    6788.66 Lo13-2a-4896       D          1000.00   0.15   0.29   1.00    5.14    180.000         90.000
           19     19      18.57 Lo13-2a-4896       D          1000.00   0.15   0.29   1.00   17.83    180.000         90.000
           20     20     145.68 Lo13-2a-4896       D          1000.00   0.15   0.29   1.00    5.51    180.000         90.000
           21     21    9652.58 Lo13-2a-4896       D          1000.00   0.15   0.29   1.00   14.85    180.000         90.000
           22     22    3377.84 Lo13-2a-4896       D          1000.00   0.15   0.29   1.00   10.48    180.000         90.000
           23     23     673.60 Lo13-2a-4896       D          1000.00   0.15   0.29   1.00    2.50    180.000         90.000
           24     24    6157.24 Lo13-2a-4896       D          1000.00   0.15   0.29   1.00    6.33    180.000         90.000
           25     25    7014.29 Lo13-2a-4896       D          1000.00   0.15   0.29   1.00   14.26    180.000         90.000
           26     26    8933.33 Lo13-2a-4896       D          1000.00   0.15   0.29   1.00   11.00    180.000         90.000
           27     27     558.70 Lo13-2a-4896       D          1000.00   0.15   0.29   1.00   19.73    180.000         90.000
           28     28    1628.56 Lo13-2a-4896       D          1000.00   0.15   0.29   1.00   26.46    180.000         90.000
           29     29    8467.03 Lo13-2a-4896       D          1000.00   0.15   0.29   1.00    5.51    180.000         90.000
           30     30    2092.34 Lo13-2a-4896       D          1000.00   0.15   0.29   1.00    3.40    180.000         90.000
           31     31    7772.42 Lo13-2a-4896       D          1000.00   0.15   0.29   1.00   18.46    180.000         90.000
           32     32    4442.90 Lo13-2a-4896       D          1000.00   0.15   0.29   1.00   30.69    180.000         90.000
           33     33    6672.89 Lo13-2a-4896       D          1000.00   0.15   0.29   1.00   17.20    180.000         90.000
           34     34    1498.15 Lo13-2a-4896       D          1000.00   0.15   0.29   1.00    4.41    180.000         90.000
           35     35    4402.52 Lo13-2a-4896       D          1000.00   0.15   0.29   1.00   10.48    180.000         90.000
           36     36    4291.48 Lo13-2a-4896       D          1000.00   0.15   0.29   1.00   22.35    180.000         90.000
           37     37    9087.51 Lo13-2a-4896       D          1000.00   0.15   0.29   1.00   12.05    180.000         90.000
           38     38   14134.12 Lo13-2a-4896       D          1000.00   0.15   0.29   1.00    9.49    180.000         90.000
           39     39      21.72 Lo13-2a-4896       D          1000.00   0.15   0.29   1.00   30.69    180.000         90.000
           40     40    3150.87 Lo13-2a-4896       D          1000.00   0.15   0.29   1.00    9.98    180.000         90.000
           41     41    2651.98 Lo13-2a-4896       D          1000.00   0.15   0.29   1.00   16.00    180.000         90.000
           42     42    3346.04 Lo13-2a-4896       D          1000.00   0.15   0.29   1.00    8.03    180.000         90.000
           43     43    9138.90 Lo13-2a-4896       D          1000.00   0.15   0.29   1.00    6.73    180.000         90.000
           44     44    5800.64 Lo13-2a-4896       D          1000.00   0.15   0.29   1.00    7.16    180.000         90.000
           45     45   11350.94 Lo13-2a-4896       D          1000.00   0.15   0.29   1.00    7.16    180.000         90.000
           46     46     157.09 Lo13-2a-4896       D          1000.00   0.15   0.29   1.00    2.80    180.000         90.000
           47     47    5370.39 Lo13-2a-4896       D          1000.00   0.15   0.29   1.00    5.91    180.000         90.000
           48     48    1070.41 Lo13-2a-4896       D          1000.00   0.15   0.29   1.00    7.16    180.000         90.000
           49     49    3816.20 Lo13-2a-4896       D          1000.00   0.15   0.29   1.00    5.91    180.000         90.000
           50     50   11071.08 Lo13-2a-4896       D          1000.00   0.15   0.29   1.00   27.84    180.000         90.000
           51     51    4929.51 Lo13-2a-4896       D          1000.00   0.15   0.29   1.00   12.58    180.000         90.000
           52     52    6956.92 Lo13-2a-4896       D          1000.00   0.15   0.29   1.00   10.48    180.000         90.000
           53     53   16730.85 Lo13-2a-4896       D          1000.00   0.15   0.29   1.00    5.14    180.000         90.000
           54     54   20860.99 Lo13-2a-4896       D          1000.00   0.15   0.29   1.00   21.05    180.000         90.000
           55     55    7146.19 Lo13-2a-4896       D          1000.00   0.15   0.29   1.00    4.76    180.000         90.000
           56     56    4967.83 Lo13-2a-4896       D          1000.00   0.15   0.29   1.00   10.48    180.000         90.000
           57     57    1156.74 Lo13-2a-4896       D          1000.00   0.15   0.29   1.00    4.76    180.000         90.000
           58     58    3801.96 Lo13-2a-4896       D          1000.00   0.15   0.29   1.00    8.03    180.000         90.000
           59     59    4903.38 Lo13-2a-4896       D          1000.00   0.15   0.29   1.00    9.98    180.000         90.000
           60     60    4872.21 Lo13-2a-4896       D          1000.00   0.15   0.29   1.00    1.98    180.000         90.000
           61     61     302.76 Lo13-2a-4896       D          1000.00   0.15   0.29   1.00   13.68    180.000         90.000
           62     62    1478.16 Lo13-2a-4896       D          1000.00   0.15   0.29   1.00   11.00    180.000         90.000
           63     63   10980.97 Lo13-2a-4896       D          1000.00   0.15   0.29   1.00    4.06    180.000         90.000
           64     64    2006.32 Lo13-2a-4896       D          1000.00   0.15   0.29   1.00    7.16    180.000         90.000
           65     65    4398.35 Lo13-2a-4896       D          1000.00   0.15   0.29   1.00    1.98    180.000         90.000
           66     66     193.13 Lo13-2a-4896       D          1000.00   0.15   0.29   1.00    5.14    180.000         90.000
           67     67    1333.35 Lo13-2a-4896       D          1000.00   0.15   0.29   1.00    5.91    180.000         90.000
           68     68    6306.93 Lo13-2a-4896       D          1000.00   0.15   0.29   1.00    9.98    180.000         90.000
           69     69     997.06 Lo13-2a-4896       D          1000.00   0.15   0.29   1.00   13.68    180.000         90.000
           70     70    6788.42 Lo11-2abc-4894     D           890.00   0.10   0.30   1.00   83.32    160.000         80.000
           71     71    6729.39 Lo13-2a-4896       D          1000.00   0.15   0.29   1.00   19.07    180.000         90.000
           72     72   10532.93 Lo13-2a-4896       D          1000.00   0.15   0.29   1.00   13.68    180.000         90.000
           73     73   27514.68 Lo13-2a-4896       D          1000.00   0.15   0.29   1.00   18.46    180.000         90.000
           74     74   13556.38 Lo13-2a-4896       D          1000.00   0.15   0.29   1.00   16.61    180.000         90.000
           75     75   12235.85 Lo13-2a-4896       D          1000.00   0.15   0.29   1.00   20.40    180.000         90.000
           76     76    5637.89 Lo13-2a-4896       D          1000.00   0.15   0.29   1.00   17.83    180.000         90.000
           77     77    7762.42 Lo13-2a-4896       D          1000.00   0.15   0.29   1.00    4.06    180.000         90.000
           78     78    5592.09 Lo13-2a-4896       D          1000.00   0.15   0.29   1.00    9.98    180.000         90.000
           79     79    8187.64 Lo13-2a-4896       D          1000.00   0.15   0.29   1.00   17.83    180.000         90.000
           80     80    6155.98 Lo13-2a-4896       D          1000.00   0.15   0.29   1.00    8.51    180.000         90.000
           81     81    6132.21 Lo13-2a-4896       D          1000.00   0.15   0.29   1.00    8.51    180.000         90.000
           82     82   14168.04 Lo13-2a-4896       D          1000.00   0.15   0.29   1.00    9.98    180.000         90.000
           83     83   13441.08 Lo13-2a-4896       D          1000.00   0.15   0.29   1.00    6.73    180.000         90.000
           84     84   18507.84 Lo13-2a-4896       D          1000.00   0.15   0.29   1.00    9.00    180.000         90.000
           85     85    8860.06 Lo13-2a-4896       D          1000.00   0.15   0.29   1.00    9.00    180.000         90.000
           86     86    6454.18 Lo13-2a-4896       D          1000.00   0.15   0.29   1.00    6.73    180.000         90.000
           87     87    6347.62 Lo13-2a-4896       D          1000.00   0.15   0.29   1.00    6.73    180.000         90.000
           88     88    7599.35 Lo13-2a-4896       D          1000.00   0.15   0.29   1.00    6.33    180.000         90.000
           89     89    4667.98 Lo13-2a-4896       D          1000.00   0.15   0.29   1.00    6.73    180.000         90.000
           90     90    8595.78 Lo13-2a-4896       D          1000.00   0.15   0.29   1.00    9.98    180.000         90.000
           91     91    4757.31 Lo13-2a-4896       D          1000.00   0.15   0.29   1.00    5.14    180.000         90.000
           92     92   10723.30 Lo13-2a-4896       D          1000.00   0.15   0.29   1.00    4.06    180.000         90.000
           93     93    5487.34 Lo13-2a-4896       D          1000.00   0.15   0.29   1.00    4.41    180.000         90.000
           94     94   11684.16 Lo13-2a-4896       D          1000.00   0.15   0.29   1.00    3.73    180.000         90.000
           95     95    6942.28 Lo13-2a-4896       D          1000.00   0.15   0.29   1.00    5.51    180.000         90.000
           96     96    9393.97 Lo13-2a-4896       D          1000.00   0.15   0.29   1.00   10.48    180.000         90.000
           97     97    6788.34 Lo13-2a-4896       D          1000.00   0.15   0.29   1.00    1.26    180.000         90.000
           98     98    7282.35 Lo13-2a-4896       D          1000.00   0.15   0.29   1.00    7.60    180.000         90.000
           99     99   10337.59 Lo13-2a-4896       D          1000.00   0.15   0.29   1.00    2.23    180.000         90.000
          100    100   12413.09 Lo13-2a-4896       D          1000.00   0.15   0.29   1.00    1.05    180.000         90.000
          101    101    8557.30 Lo13-2a-4896       D          1000.00   0.15   0.29   1.00    2.23    180.000         90.000
          102    102   12176.51 Lo13-2a-4896       D          1000.00   0.15   0.29   1.00    7.60    180.000         90.000
          103    103    7304.85 Lo13-2a-4896       D          1000.00   0.15   0.29   1.00   21.71    180.000         90.000
          104    104    6618.50 Lo13-2a-4896       D          1000.00   0.15   0.29   1.00    7.60    180.000         90.000
          105    105    6399.24 Lo13-2a-4896       D          1000.00   0.15   0.29   1.00   10.48    180.000         90.000
          106    106    6554.83 Lo13-2a-4896       D          1000.00   0.15   0.29   1.00    8.51    180.000         90.000
          107    107   15707.11 Lo13-2a-4896       D          1000.00   0.15   0.29   1.00    4.41    180.000         90.000
          108    108   12294.72 Lo13-2a-4896       D          1000.00   0.15   0.29   1.00    9.00    180.000         90.000
          109    109    7264.01 Lo13-2a-4896       D          1000.00   0.15   0.29   1.00   19.07    180.000         90.000
          110    110    6479.75 Lo13-2a-4896       D          1000.00   0.15   0.29   1.00    3.73    180.000         90.000
          111    111    6918.67 Lo13-2a-4896       D          1000.00   0.15   0.29   1.00    3.09    180.000         90.000
          112    112    5816.07 Lo13-2a-4896       D          1000.00   0.15   0.29   1.00    4.76    180.000         90.000
          113    113    4767.38 Lo13-2a-4896       D          1000.00   0.15   0.29   1.00    5.14    180.000         90.000
          114    114    4634.30 Lo13-2a-4896       D          1000.00   0.15   0.29   1.00    4.41    180.000         90.000
          115    115    4656.96 Lo13-2a-4896       D          1000.00   0.15   0.29   1.00    4.41    180.000         90.000
          116    116   10961.14 Lo13-2a-4896       D          1000.00   0.15   0.29   1.00   14.85    180.000         90.000
          117    117    6619.13 Lo13-2a-4896       D          1000.00   0.15   0.29   1.00    6.73    180.000         90.000
          118    118    4718.11 Lo13-2a-4896       D          1000.00   0.15   0.29   1.00    4.41    180.000         90.000
          119    119    7927.30 Lo13-2a-4896       D          1000.00   0.15   0.29   1.00    9.00    180.000         90.000
          120    120    5197.72 Lo13-2a-4896       D          1000.00   0.15   0.29   1.00    4.06    180.000         90.000
          121    121    6905.92 Lo13-2a-4896       D          1000.00   0.15   0.29   1.00    4.06    180.000         90.000
          122    122   13183.96 Lo13-2a-4896       D          1000.00   0.15   0.29   1.00    2.80    180.000         90.000
          123    123    4721.50 Lo13-2a-4896       D          1000.00   0.15   0.29   1.00    2.80    180.000         90.000
          124    124    4632.57 Lo13-2a-4896       D          1000.00   0.15   0.29   1.00   33.56    180.000         90.000
          125    125    9910.87 Lo13-2a-4896       D          1000.00   0.15   0.29   1.00    3.73    180.000         90.000
          126    126    6029.43 Lo13-2a-4896       D          1000.00   0.15   0.29   1.00   10.48    180.000         90.000
          127    127    9567.50 Lo13-2a-4896       D          1000.00   0.15   0.29   1.00    6.73    180.000         90.000
          128    128    9228.77 Lo13-2a-4896       D          1000.00   0.15   0.29   1.00   17.20    180.000         90.000
          129    129   10380.09 Lo13-2a-4896       D          1000.00   0.15   0.29   1.00   37.28    180.000         90.000
          130    130    7455.80 Lo13-2a-4896       D          1000.00   0.15   0.29   1.00    6.33    180.000         90.000
          131    131   15440.24 Lo13-2a-4896       D          1000.00   0.15   0.29   1.00    2.50    180.000         90.000
          132    132   10757.93 Lo13-2a-4896       D          1000.00   0.15   0.29   1.00   13.68    180.000         90.000
          133    133    7343.57 Lo13-2a-4896       D          1000.00   0.15   0.29   1.00    2.50    180.000         90.000
          134    134   21515.23 Lo13-2a-4896       D          1000.00   0.15   0.29   1.00    3.40    180.000         90.000
          135    135    4575.67 Lo13-2a-4896       D          1000.00   0.15   0.29   1.00   11.00    180.000         90.000
          136    136    9251.52 Lo13-2a-4896       D          1000.00   0.15   0.29   1.00    2.50    180.000         90.000
          137    137   13377.80 Lo13-2a-4896       D          1000.00   0.15   0.29   1.00    8.03    180.000         90.000
          138    138    7112.35 Lo13-2a-4896       D          1000.00   0.15   0.29   1.00    3.40    180.000         90.000
          139    139    9121.43 Lo13-2a-4896       D          1000.00   0.15   0.29   1.00    3.40    180.000         90.000

         HRU Input Summary Table 3:
          Sub   HRU   Area(ha) Urban Irrig DrainTiles Pothole Pstcide Biomix Septic
            1      1    3932.92   x                                      0.20 x
            2      2   13579.75   x                                      0.20 x
            3      3   14610.97                                          0.20 x
            4      4    4047.82   x                                      0.20 x
            5      5     359.03   x                                      0.20 x
            6      6     358.01                                          0.20 x
            7      7    8162.22   x                                      0.20 x
            8      8    3790.23   x                                      0.20 x
            9      9    5028.27                                          0.20 x
           10     10    4799.73                                          0.20 x
           11     11    5385.18                                          0.20 x
           12     12     252.71                                          0.20 x
           13     13     224.22                                          0.20 x
           14     14   13291.78                                          0.20 x
           15     15    1083.08   x                                      0.20 x
           16     16    4959.33   x                                      0.20 x
           17     17   14825.82                                          0.20 x
           18     18    6788.66   x                                      0.20 x
           19     19      18.57   x                                      0.20 x
           20     20     145.68   x                                      0.20 x
           21     21    9652.58                                          0.20 x
           22     22    3377.84   x                                      0.20 x
           23     23     673.60   x                                      0.20 x
           24     24    6157.24   x                                      0.20 x
           25     25    7014.29   x                                      0.20 x
           26     26    8933.33   x                                      0.20 x
           27     27     558.70                                          0.20 x
           28     28    1628.56   x                                      0.20 x
           29     29    8467.03   x                                      0.20 x
           30     30    2092.34   x                                      0.20 x
           31     31    7772.42   x                                      0.20 x
           32     32    4442.90   x                                      0.20 x
           33     33    6672.89   x                                      0.20 x
           34     34    1498.15   x                                      0.20 x
           35     35    4402.52   x                                      0.20 x
           36     36    4291.48   x                                      0.20 x
           37     37    9087.51   x                                      0.20 x
           38     38   14134.12   x                                      0.20 x
           39     39      21.72   x                                      0.20 x
           40     40    3150.87   x                                      0.20 x
           41     41    2651.98   x                                      0.20 x
           42     42    3346.04   x                                      0.20 x
           43     43    9138.90   x                                      0.20 x
           44     44    5800.64   x                                      0.20 x
           45     45   11350.94   x                                      0.20 x
           46     46     157.09   x                                      0.20 x
           47     47    5370.39   x                                      0.20 x
           48     48    1070.41   x                                      0.20 x
           49     49    3816.20   x                                      0.20 x
           50     50   11071.08   x                                      0.20 x
           51     51    4929.51                                          0.20 x
           52     52    6956.92   x                                      0.20 x
           53     53   16730.85   x                                      0.20 x
           54     54   20860.99   x                                      0.20 x
           55     55    7146.19   x                                      0.20 x
           56     56    4967.83   x                                      0.20 x
           57     57    1156.74   x                                      0.20 x
           58     58    3801.96   x                                      0.20 x
           59     59    4903.38   x                                      0.20 x
           60     60    4872.21   x                                      0.20 x
           61     61     302.76   x                                      0.20 x
           62     62    1478.16   x                                      0.20 x
           63     63   10980.97   x                                      0.20 x
           64     64    2006.32   x                                      0.20 x
           65     65    4398.35   x                                      0.20 x
           66     66     193.13   x                                      0.20 x
           67     67    1333.35   x                                      0.20 x
           68     68    6306.93                                          0.20 x
           69     69     997.06   x                                      0.20 x
           70     70    6788.42                                          0.20 x
           71     71    6729.39                                          0.20 x
           72     72   10532.93                                          0.20 x
           73     73   27514.68   x                                      0.20 x
           74     74   13556.38   x                                      0.20 x
           75     75   12235.85   x                                      0.20 x
           76     76    5637.89   x                                      0.20 x
           77     77    7762.42   x                                      0.20 x
           78     78    5592.09   x                                      0.20 x
           79     79    8187.64                                          0.20 x
           80     80    6155.98   x                                      0.20 x
           81     81    6132.21   x                                      0.20 x
           82     82   14168.04   x                                      0.20 x
           83     83   13441.08   x                                      0.20 x
           84     84   18507.84   x                                      0.20 x
           85     85    8860.06   x                                      0.20 x
           86     86    6454.18   x                                      0.20 x
           87     87    6347.62   x                                      0.20 x
           88     88    7599.35   x                                      0.20 x
           89     89    4667.98   x                                      0.20 x
           90     90    8595.78   x                                      0.20 x
           91     91    4757.31   x                                      0.20 x
           92     92   10723.30   x                                      0.20 x
           93     93    5487.34   x                                      0.20 x
           94     94   11684.16   x                                      0.20 x
           95     95    6942.28   x                                      0.20 x
           96     96    9393.97   x                                      0.20 x
           97     97    6788.34   x                                      0.20 x
           98     98    7282.35   x                                      0.20 x
           99     99   10337.59   x                                      0.20 x
          100    100   12413.09   x                                      0.20 x
          101    101    8557.30   x                                      0.20 x
          102    102   12176.51   x                                      0.20 x
          103    103    7304.85   x                                      0.20 x
          104    104    6618.50   x                                      0.20 x
          105    105    6399.24   x                                      0.20 x
          106    106    6554.83   x                                      0.20 x
          107    107   15707.11   x                                      0.20 x
          108    108   12294.72   x                                      0.20 x
          109    109    7264.01   x                                      0.20 x
          110    110    6479.75   x                                      0.20 x
          111    111    6918.67   x                                      0.20 x
          112    112    5816.07   x                                      0.20 x
          113    113    4767.38   x                                      0.20 x
          114    114    4634.30   x                                      0.20 x
          115    115    4656.96   x                                      0.20 x
          116    116   10961.14   x                                      0.20 x
          117    117    6619.13   x                                      0.20 x
          118    118    4718.11   x                                      0.20 x
          119    119    7927.30   x                                      0.20 x
          120    120    5197.72   x                                      0.20 x
          121    121    6905.92   x                                      0.20 x
          122    122   13183.96   x                                      0.20 x
          123    123    4721.50   x                                      0.20 x
          124    124    4632.57   x                                      0.20 x
          125    125    9910.87   x                                      0.20 x
          126    126    6029.43   x                                      0.20 x
          127    127    9567.50   x                                      0.20 x
          128    128    9228.77   x                                      0.20 x
          129    129   10380.09   x                                      0.20 x
          130    130    7455.80   x                                      0.20 x
          131    131   15440.24   x                                      0.20 x
          132    132   10757.93   x                                      0.20 x
          133    133    7343.57   x                                      0.20 x
          134    134   21515.23   x                                      0.20 x
          135    135    4575.67   x                                      0.20 x
          136    136    9251.52   x                                      0.20 x
          137    137   13377.80   x                                      0.20 x
          138    138    7112.35   x                                      0.20 x
          139    139    9121.43   x                                      0.20 x

         HRU Input Summary Table 4 (Groundwater):
          Sub   HRU   Area(ha) GWdelay(days), GWalpha(days) GWQmin(mm) GWrevap Revapmin(mm) Deepfr NO3(ppm) SolP(ppm)
            1      1    3932.92        94.440         0.251   1187.935   0.024      208.152  0.573    0.000     0.000
            2      2   13579.75        94.440         0.251   1187.935   0.024      208.152  0.573    0.000     0.000
            3      3   14610.97        94.440         0.251   1187.935   0.024      208.152  0.573    0.000     0.000
            4      4    4047.82        94.440         0.251   1187.935   0.024      208.152  0.573    0.000     0.000
            5      5     359.03        94.440         0.251   1187.935   0.024      208.152  0.573    0.000     0.000
            6      6     358.01        94.440         0.251   1187.935   0.024      208.152  0.573    0.000     0.000
            7      7    8162.22        94.440         0.251   1187.935   0.024      208.152  0.573    0.000     0.000
            8      8    3790.23        94.440         0.251   1187.935   0.024      208.152  0.573    0.000     0.000
            9      9    5028.27        94.440         0.251   1187.935   0.024      208.152  0.573    0.000     0.000
           10     10    4799.73        94.440         0.251   1187.935   0.024      208.152  0.573    0.000     0.000
           11     11    5385.18        94.440         0.251   1187.935   0.024      208.152  0.573    0.000     0.000
           12     12     252.71        94.440         0.251   1187.935   0.024      208.152  0.573    0.000     0.000
           13     13     224.22        94.440         0.251   1187.935   0.024      208.152  0.573    0.000     0.000
           14     14   13291.78        94.440         0.251   1187.935   0.024      208.152  0.573    0.000     0.000
           15     15    1083.08        94.440         0.251   1187.935   0.024      208.152  0.573    0.000     0.000
           16     16    4959.33        94.440         0.251   1187.935   0.024      208.152  0.573    0.000     0.000
           17     17   14825.82        94.440         0.251   1187.935   0.024      208.152  0.573    0.000     0.000
           18     18    6788.66        94.440         0.251   1187.935   0.024      208.152  0.573    0.000     0.000
           19     19      18.57        94.440         0.251   1187.935   0.024      208.152  0.573    0.000     0.000
           20     20     145.68        94.440         0.251   1187.935   0.024      208.152  0.573    0.000     0.000
           21     21    9652.58        94.440         0.251   1187.935   0.024      208.152  0.573    0.000     0.000
           22     22    3377.84        94.440         0.251   1187.935   0.024      208.152  0.573    0.000     0.000
           23     23     673.60        94.440         0.251   1187.935   0.024      208.152  0.573    0.000     0.000
           24     24    6157.24        94.440         0.251   1187.935   0.024      208.152  0.573    0.000     0.000
           25     25    7014.29        94.440         0.251   1187.935   0.024      208.152  0.573    0.000     0.000
           26     26    8933.33        94.440         0.251   1187.935   0.024      208.152  0.573    0.000     0.000
           27     27     558.70        94.440         0.251   1187.935   0.024      208.152  0.573    0.000     0.000
           28     28    1628.56        94.440         0.251   1187.935   0.024      208.152  0.573    0.000     0.000
           29     29    8467.03        94.440         0.251   1187.935   0.024      208.152  0.573    0.000     0.000
           30     30    2092.34        94.440         0.251   1187.935   0.024      208.152  0.573    0.000     0.000
           31     31    7772.42        94.440         0.251   1187.935   0.024      208.152  0.573    0.000     0.000
           32     32    4442.90        94.440         0.251   1187.935   0.024      208.152  0.573    0.000     0.000
           33     33    6672.89        94.440         0.251   1187.935   0.024      208.152  0.573    0.000     0.000
           34     34    1498.15        94.440         0.251   1187.935   0.024      208.152  0.573    0.000     0.000
           35     35    4402.52        94.440         0.251   1187.935   0.024      208.152  0.573    0.000     0.000
           36     36    4291.48        94.440         0.251   1187.935   0.024      208.152  0.573    0.000     0.000
           37     37    9087.51        94.440         0.251   1187.935   0.024      208.152  0.573    0.000     0.000
           38     38   14134.12        94.440         0.251   1187.935   0.024      208.152  0.573    0.000     0.000
           39     39      21.72        94.440         0.251   1187.935   0.024      208.152  0.573    0.000     0.000
           40     40    3150.87        94.440         0.251   1187.935   0.024      208.152  0.573    0.000     0.000
           41     41    2651.98        94.440         0.251   1187.935   0.024      208.152  0.573    0.000     0.000
           42     42    3346.04        94.440         0.251   1187.935   0.024      208.152  0.573    0.000     0.000
           43     43    9138.90        94.440         0.251   1187.935   0.024      208.152  0.573    0.000     0.000
           44     44    5800.64        94.440         0.251   1187.935   0.024      208.152  0.573    0.000     0.000
           45     45   11350.94        94.440         0.251   1187.935   0.024      208.152  0.573    0.000     0.000
           46     46     157.09        94.440         0.251   1187.935   0.024      208.152  0.573    0.000     0.000
           47     47    5370.39        94.440         0.251   1187.935   0.024      208.152  0.573    0.000     0.000
           48     48    1070.41        94.440         0.251   1187.935   0.024      208.152  0.573    0.000     0.000
           49     49    3816.20        94.440         0.251   1187.935   0.024      208.152  0.573    0.000     0.000
           50     50   11071.08        94.440         0.251   1187.935   0.024      208.152  0.573    0.000     0.000
           51     51    4929.51        94.440         0.251   1187.935   0.024      208.152  0.573    0.000     0.000
           52     52    6956.92        94.440         0.251   1187.935   0.024      208.152  0.573    0.000     0.000
           53     53   16730.85        94.440         0.251   1187.935   0.024      208.152  0.573    0.000     0.000
           54     54   20860.99        94.440         0.251   1187.935   0.024      208.152  0.573    0.000     0.000
           55     55    7146.19        94.440         0.251   1187.935   0.024      208.152  0.573    0.000     0.000
           56     56    4967.83        94.440         0.251   1187.935   0.024      208.152  0.573    0.000     0.000
           57     57    1156.74        94.440         0.251   1187.935   0.024      208.152  0.573    0.000     0.000
           58     58    3801.96        94.440         0.251   1187.935   0.024      208.152  0.573    0.000     0.000
           59     59    4903.38        94.440         0.251   1187.935   0.024      208.152  0.573    0.000     0.000
           60     60    4872.21        94.440         0.251   1187.935   0.024      208.152  0.573    0.000     0.000
           61     61     302.76        94.440         0.251   1187.935   0.024      208.152  0.573    0.000     0.000
           62     62    1478.16        94.440         0.251   1187.935   0.024      208.152  0.573    0.000     0.000
           63     63   10980.97        94.440         0.251   1187.935   0.024      208.152  0.573    0.000     0.000
           64     64    2006.32        94.440         0.251   1187.935   0.024      208.152  0.573    0.000     0.000
           65     65    4398.35        94.440         0.251   1187.935   0.024      208.152  0.573    0.000     0.000
           66     66     193.13        94.440         0.251   1187.935   0.024      208.152  0.573    0.000     0.000
           67     67    1333.35        94.440         0.251   1187.935   0.024      208.152  0.573    0.000     0.000
           68     68    6306.93        94.440         0.251   1187.935   0.024      208.152  0.573    0.000     0.000
           69     69     997.06        94.440         0.251   1187.935   0.024      208.152  0.573    0.000     0.000
           70     70    6788.42        94.440         0.251   1187.935   0.024      208.152  0.573    0.000     0.000
           71     71    6729.39        94.440         0.251   1187.935   0.024      208.152  0.573    0.000     0.000
           72     72   10532.93        94.440         0.251   1187.935   0.024      208.152  0.573    0.000     0.000
           73     73   27514.68        94.440         0.251   1187.935   0.024      208.152  0.573    0.000     0.000
           74     74   13556.38        94.440         0.251   1187.935   0.024      208.152  0.573    0.000     0.000
           75     75   12235.85        94.440         0.251   1187.935   0.024      208.152  0.573    0.000     0.000
           76     76    5637.89        94.440         0.251   1187.935   0.024      208.152  0.573    0.000     0.000
[...]
          105    105    6399.24        94.440         0.251   1187.935   0.024      208.152  0.573    0.000     0.000
          106    106    6554.83        94.440         0.251   1187.935   0.024      208.152  0.573    0.000     0.000
          107    107   15707.11        94.440         0.251   1187.935   0.024      208.152  0.573    0.000     0.000
          108    108   12294.72        94.440         0.251   1187.935   0.024      208.152  0.573    0.000     0.000
          109    109    7264.01        94.440         0.251   1187.935   0.024      208.152  0.573    0.000     0.000
          110    110    6479.75        94.440         0.251   1187.935   0.024      208.152  0.573    0.000     0.000
          111    111    6918.67        94.440         0.251   1187.935   0.024      208.152  0.573    0.000     0.000
          112    112    5816.07        94.440         0.251   1187.935   0.024      208.152  0.573    0.000     0.000
          113    113    4767.38        94.440         0.251   1187.935   0.024      208.152  0.573    0.000     0.000
          114    114    4634.30        94.440         0.251   1187.935   0.024      208.152  0.573    0.000     0.000
          115    115    4656.96        94.440         0.251   1187.935   0.024      208.152  0.573    0.000     0.000
          116    116   10961.14        94.440         0.251   1187.935   0.024      208.152  0.573    0.000     0.000
          117    117    6619.13        94.440         0.251   1187.935   0.024      208.152  0.573    0.000     0.000
          118    118    4718.11        94.440         0.251   1187.935   0.024      208.152  0.573    0.000     0.000
          119    119    7927.30        94.440         0.251   1187.935   0.024      208.152  0.573    0.000     0.000
          120    120    5197.72        94.440         0.251   1187.935   0.024      208.152  0.573    0.000     0.000
          121    121    6905.92        94.440         0.251   1187.935   0.024      208.152  0.573    0.000     0.000
          122    122   13183.96        94.440         0.251   1187.935   0.024      208.152  0.573    0.000     0.000
          123    123    4721.50        94.440         0.251   1187.935   0.024      208.152  0.573    0.000     0.000
          124    124    4632.57        94.440         0.251   1187.935   0.024      208.152  0.573    0.000     0.000
          125    125    9910.87        94.440         0.251   1187.935   0.024      208.152  0.573    0.000     0.000
          126    126    6029.43        94.440         0.251   1187.935   0.024      208.152  0.573    0.000     0.000
          127    127    9567.50        94.440         0.251   1187.935   0.024      208.152  0.573    0.000     0.000
          128    128    9228.77        94.440         0.251   1187.935   0.024      208.152  0.573    0.000     0.000
          129    129   10380.09        94.440         0.251   1187.935   0.024      208.152  0.573    0.000     0.000
          130    130    7455.80        94.440         0.251   1187.935   0.024      208.152  0.573    0.000     0.000
          131    131   15440.24        94.440         0.251   1187.935   0.024      208.152  0.573    0.000     0.000
          132    132   10757.93        94.440         0.251   1187.935   0.024      208.152  0.573    0.000     0.000
          133    133    7343.57        94.440         0.251   1187.935   0.024      208.152  0.573    0.000     0.000
          134    134   21515.23        94.440         0.251   1187.935   0.024      208.152  0.573    0.000     0.000
          135    135    4575.67        94.440         0.251   1187.935   0.024      208.152  0.573    0.000     0.000
          136    136    9251.52        94.440         0.251   1187.935   0.024      208.152  0.573    0.000     0.000
          137    137   13377.80        94.440         0.251   1187.935   0.024      208.152  0.573    0.000     0.000
          138    138    7112.35        94.440         0.251   1187.935   0.024      208.152  0.573    0.000     0.000
          139    139    9121.43        94.440         0.251   1187.935   0.024      208.152  0.573    0.000     0.000

         Tributary/Main Channel Characteristics
              |--------------Tributary--------------------|---------------------Main---------------------------|
          Sub  Length(km) Slope Width(m) Cond(mm/hr)     N Length(km) Slope Width(m) Depth(m) Cond(mm/hr)     N
            1       16.34 0.006    11.68      0.0000 0.014      14.84 0.000   322.31     5.16     52.9348 0.015
            2       28.98 0.005    24.57      0.0000 0.014      22.29 0.001   320.21     5.14     52.9348 0.015
            3       25.99 0.003    25.67      0.0000 0.014      18.03 0.001   312.09     5.05     52.9348 0.015
            4       19.00 0.001    11.88      0.0000 0.014      12.86 0.001   291.85     4.83     52.9348 0.015
            5        4.26 0.001     2.78      0.0000 0.014       3.39 0.001   289.60     4.80     52.9348 0.015
            6        5.02 0.003     2.77      0.0000 0.014       3.69 0.001   287.31     4.78     52.9348 0.015
            7       23.51 0.005    18.10      0.0000 0.014      12.99 0.001   284.65     4.75     52.9348 0.015
            8       20.42 0.003    11.42      0.0000 0.014       2.26 0.001   265.30     4.53     52.9348 0.015
            9       22.87 0.005    13.53      0.0000 0.014      16.15 0.001   261.43     4.49     52.9348 0.015
           10       16.43 0.006    13.16      0.0000 0.014      10.26 0.001   257.27     4.44     52.9348 0.015
           11       18.76 0.004    14.10      0.0000 0.014      11.53 0.000   254.31     4.40     52.9348 0.015
           12        3.88 0.013     2.25      0.0000 0.014       1.98 0.001   248.67     4.34     52.9348 0.015
           13        4.09 0.002     2.09      0.0000 0.014       2.05 0.001   207.38     3.84     52.9348 0.015
           14       34.58 0.002    24.25      0.0000 0.014      27.16 0.001   158.12     3.21     52.9348 0.015
           15        9.74 0.005     5.39      0.0000 0.014       8.23 0.001   141.05     2.97     52.9348 0.015
           16       21.44 0.002    13.42      0.0000 0.014       9.44 0.001   137.76     2.93     52.9348 0.015
           17       30.10 0.003    25.89      0.0000 0.014      18.23 0.001   111.01     2.53     52.9348 0.015
           18       18.49 0.003    16.20      0.0000 0.014      12.22 0.001   133.64     2.87     52.9348 0.015
           19        1.38 0.002     0.47      0.0000 0.014       1.35 0.002   101.43     2.39     52.9348 0.015
           20        3.45 0.003     1.62      0.0000 0.014       3.32 0.001    99.44     2.36     52.9348 0.015
           21       24.21 0.003    20.02      0.0000 0.014      21.04 0.001   112.94     2.56     52.9348 0.015
           22       13.58 0.004    10.66      0.0000 0.014       5.90 0.001   129.58     2.81     52.9348 0.015
           23       10.64 0.001     4.05      0.0000 0.014       6.36 0.001    97.33     2.32     52.9348 0.015
           24       17.01 0.003    15.28      0.0000 0.014      12.58 0.000   106.89     2.47     52.9348 0.015
           25       25.65 0.003    16.53      0.0000 0.014      18.48 0.001   102.24     2.40     52.9348 0.015
           26       26.04 0.004    19.11      0.0000 0.014      15.27 0.001    93.99     2.27     52.9348 0.015
           27        5.49 0.007     3.62      0.0000 0.014       2.40 0.001    93.10     2.25     52.9348 0.015
           28       13.57 0.005     6.88      0.0000 0.014      11.95 0.001    71.74     1.89     52.9348 0.015
           29       20.84 0.002    18.50      0.0000 0.014      11.27 0.001    96.97     2.32     52.9348 0.015
           30       12.89 0.003     8.00      0.0000 0.014       4.72 0.001    87.59     2.16     52.9348 0.015
           31       24.01 0.003    17.58      0.0000 0.014      12.66 0.001    70.84     1.88     52.9348 0.015
           32       18.25 0.006    12.57      0.0000 0.014      10.36 0.002    67.52     1.82     52.9348 0.015
           33       17.09 0.002    16.04      0.0000 0.014       6.92 0.001    73.67     1.93     52.9348 0.015
           34        8.84 0.003     6.55      0.0000 0.014       2.44 0.000    60.34     1.69     52.9348 0.015
           35       17.58 0.003    12.50      0.0000 0.014       6.01 0.002    64.26     1.76     52.9348 0.015
           36       14.89 0.007    12.31      0.0000 0.014       8.14 0.001    61.49     1.71     52.9348 0.015
           37       21.07 0.003    19.30      0.0000 0.014       9.49 0.001    62.95     1.74     52.9348 0.015
           38       31.58 0.002    25.16      0.0000 0.014      23.00 0.000    89.47     2.19     52.9348 0.015
           39        0.94 0.023     0.52      0.0000 0.014       0.35 0.000    74.71     1.95     52.9348 0.015
           40       18.12 0.004    10.23      0.0000 0.014       7.65 0.001    55.48     1.60     52.9348 0.015
           41       12.34 0.003     9.22      0.0000 0.014       8.98 0.001    55.91     1.60     52.9348 0.015
           42       14.89 0.002    10.60      0.0000 0.014       9.22 0.000    68.99     1.85     52.9348 0.015
           43       24.74 0.001    19.37      0.0000 0.014      20.90 0.001    56.53     1.62     52.9348 0.015
           44       20.83 0.003    14.75      0.0000 0.014       8.80 0.002    47.51     1.44     52.9348 0.015
           45       25.52 0.002    22.06      0.0000 0.014      14.59 0.001    52.93     1.55     52.9348 0.015
           46        3.02 0.001     1.69      0.0000 0.014       1.51 0.001    46.36     1.42     52.9348 0.015
           47       18.49 0.001    14.08      0.0000 0.014       5.64 0.000    62.99     1.74     52.9348 0.015
           48        6.98 0.002     5.35      0.0000 0.014       4.44 0.001    36.69     1.21     52.9348 0.015
           49       17.95 0.005    11.47      0.0000 0.014       3.84 0.001    33.94     1.15     52.9348 0.015
           50       30.19 0.005    21.73      0.0000 0.014      25.62 0.002    43.51     1.36     52.9348 0.015
           51       16.56 0.003    13.37      0.0000 0.014      10.61 0.002    46.14     1.41     52.9348 0.015
           52       18.68 0.001    16.44      0.0000 0.014      16.51 0.000    49.67     1.48     52.9348 0.015
           53       44.69 0.001    27.84      0.0000 0.014      37.36 0.001    53.82     1.56     52.9348 0.015
           54       43.15 0.003    31.78      0.0000 0.014      34.15 0.002    48.91     1.47     52.9348 0.015
           55       17.77 0.001    16.71      0.0000 0.014       7.83 0.000    44.88     1.39     52.9348 0.015
           56       19.46 0.003    13.44      0.0000 0.014      11.07 0.002    37.41     1.23     52.9348 0.015
           57        8.76 0.002     5.60      0.0000 0.014       4.98 0.001    37.02     1.22     52.9348 0.015
           58       13.48 0.004    11.44      0.0000 0.014       9.45 0.001    29.87     1.06     52.9348 0.015
           59       17.89 0.003    13.33      0.0000 0.014       9.12 0.002    35.00     1.17     52.9348 0.015
           60       21.35 0.001    13.28      0.0000 0.014       6.34 0.000    35.74     1.19     52.9348 0.015
           61        5.56 0.007     2.51      0.0000 0.014       3.79 0.006    28.53     1.02     52.9348 0.015
           62       10.75 0.004     6.49      0.0000 0.014       7.73 0.003    25.16     0.94     52.9348 0.015
           63       29.70 0.001    21.63      0.0000 0.014      22.09 0.001    38.63     1.25     52.9348 0.015
           64        9.67 0.002     7.80      0.0000 0.014       8.80 0.001    30.17     1.06     52.9348 0.015
           65       19.34 0.001    12.49      0.0000 0.014      11.57 0.000    33.50     1.14     52.9348 0.015
           66        3.33 0.005     1.91      0.0000 0.014       1.38 0.001    22.01     0.86     52.9348 0.015
           67        7.47 0.003     6.10      0.0000 0.014       4.36 0.000    27.55     1.00     52.9348 0.015
           68       18.77 0.004    15.51      0.0000 0.014      11.92 0.003    30.15     1.06     52.9348 0.015
           69        7.22 0.005     5.13      0.0000 0.014       4.04 0.001    27.36     1.00     52.9348 0.015
           70       15.12 0.009    16.20      0.0000 0.014       1.54 0.002    16.20     0.70     52.9348 0.015
           71       18.59 0.005    16.12      0.0000 0.014       4.80 0.003    16.12     0.70     52.9348 0.015
           72       21.69 0.004    21.09      0.0000 0.014       8.67 0.001    21.09     0.84     52.9348 0.015
           73       65.87 0.003    37.53      0.0000 0.014      47.96 0.003    37.53     1.23     52.9348 0.015
           74       28.25 0.004    24.54      0.0000 0.014      14.85 0.002    24.54     0.93     52.9348 0.015
           75       29.60 0.005    23.08      0.0000 0.014      15.26 0.004    23.08     0.89     52.9348 0.015
           76       21.81 0.005    14.50      0.0000 0.014       2.57 0.009    14.50     0.65     52.9348 0.015
           77       36.85 0.002    17.56      0.0000 0.014      20.07 0.003    17.56     0.74     52.9348 0.015
           78       15.22 0.006    14.43      0.0000 0.014       3.24 0.002    14.43     0.65     52.9348 0.015
           79       21.25 0.005    18.13      0.0000 0.014       6.03 0.004    18.13     0.76     52.9348 0.015
           80       21.86 0.004    15.28      0.0000 0.014       5.46 0.003    15.28     0.68     52.9348 0.015
           81       28.72 0.003    15.25      0.0000 0.014       6.09 0.004    15.25     0.68     52.9348 0.015
           82       38.83 0.003    25.20      0.0000 0.014      21.59 0.003    25.20     0.94     52.9348 0.015
           83       31.00 0.003    24.42      0.0000 0.014      13.82 0.003    24.42     0.92     52.9348 0.015
           84       43.02 0.003    29.58      0.0000 0.014      24.56 0.003    29.58     1.05     52.9348 0.015
           85       34.68 0.003    19.01      0.0000 0.014      13.39 0.003    19.01     0.78     52.9348 0.015
           86       26.28 0.003    15.72      0.0000 0.014       6.02 0.003    15.72     0.69     52.9348 0.015
           87       18.91 0.003    15.56      0.0000 0.014       3.12 0.003    15.56     0.68     52.9348 0.015
           88       33.36 0.003    17.34      0.0000 0.014      10.76 0.005    17.34     0.74     52.9348 0.015
           89       20.09 0.003    12.94      0.0000 0.014       0.14 0.002    12.94     0.61     52.9348 0.015
           90       26.95 0.003    18.67      0.0000 0.014      14.71 0.002    18.67     0.77     52.9348 0.015
           91       26.91 0.003    13.09      0.0000 0.014       1.28 0.001    13.09     0.61     52.9348 0.015
           92       28.74 0.002    21.32      0.0000 0.014       8.46 0.002    21.32     0.84     52.9348 0.015
           93       13.88 0.004    14.26      0.0000 0.014       0.53 0.003    14.26     0.64     52.9348 0.015
           94       32.05 0.002    22.45      0.0000 0.014      20.63 0.002    22.45     0.87     52.9348 0.015
           95       29.98 0.004    16.42      0.0000 0.014       7.26 0.003    16.42     0.71     52.9348 0.015
           96       27.63 0.004    19.69      0.0000 0.014       8.78 0.003    19.69     0.80     52.9348 0.015
           97       24.85 0.002    16.20      0.0000 0.014       8.68 0.004    16.20     0.70     52.9348 0.015
           98       26.88 0.004    16.90      0.0000 0.014       6.82 0.003    16.90     0.72     52.9348 0.015
           99       28.32 0.002    20.86      0.0000 0.014      13.67 0.002    20.86     0.83     52.9348 0.015
          100       40.63 0.002    23.28      0.0000 0.014      23.10 0.002    23.28     0.89     52.9348 0.015
          101       18.98 0.003    18.62      0.0000 0.014       4.47 0.003    18.62     0.77     52.9348 0.015
          102       45.46 0.003    23.01      0.0000 0.014      26.13 0.003    23.01     0.89     52.9348 0.015
          103       19.83 0.004    16.93      0.0000 0.014       3.93 0.002    16.93     0.72     52.9348 0.015
          104       25.74 0.002    15.96      0.0000 0.014      11.60 0.001    15.96     0.69     52.9348 0.015
          105       25.63 0.004    15.64      0.0000 0.014       9.04 0.004    15.64     0.69     52.9348 0.015
          106       23.02 0.001    15.87      0.0000 0.014       4.96 0.000    15.87     0.69     52.9348 0.015
          107       46.90 0.003    26.81      0.0000 0.014      22.93 0.002    26.81     0.98     52.9348 0.015
          108       30.72 0.003    23.14      0.0000 0.014      15.60 0.002    23.14     0.89     52.9348 0.015
          109       25.50 0.003    16.88      0.0000 0.014       6.54 0.002    16.88     0.72     52.9348 0.015
          110       25.72 0.002    15.76      0.0000 0.014       8.35 0.002    15.76     0.69     52.9348 0.015
          111       33.42 0.003    16.39      0.0000 0.014      10.20 0.003    16.39     0.71     52.9348 0.015
          112       21.51 0.002    14.77      0.0000 0.014       2.64 0.002    14.77     0.66     52.9348 0.015
          113       24.05 0.002    13.11      0.0000 0.014       2.54 0.005    13.11     0.61     52.9348 0.015
          114       25.01 0.002    12.89      0.0000 0.014       0.21 0.001    12.89     0.60     52.9348 0.015
          115       23.27 0.003    12.93      0.0000 0.014       0.49 0.005    12.93     0.60     52.9348 0.015
          116       28.01 0.004    21.60      0.0000 0.014      11.68 0.002    21.60     0.85     52.9348 0.015
          117       18.94 0.003    15.96      0.0000 0.014       1.71 0.000    15.96     0.69     52.9348 0.015
          118       20.56 0.002    13.03      0.0000 0.014       2.68 0.001    13.03     0.61     52.9348 0.015
          119       26.56 0.002    17.78      0.0000 0.014      11.81 0.001    17.78     0.75     52.9348 0.015
          120       19.70 0.002    13.81      0.0000 0.014       3.65 0.002    13.81     0.63     52.9348 0.015
          121       18.03 0.002    16.37      0.0000 0.014       4.59 0.002    16.37     0.71     52.9348 0.015
          122       25.93 0.001    24.13      0.0000 0.014      11.58 0.001    24.13     0.92     52.9348 0.015
          123       26.49 0.003    13.03      0.0000 0.014       3.84 0.003    13.03     0.61     52.9348 0.015
          124       21.56 0.006    12.89      0.0000 0.014       2.04 0.003    12.89     0.60     52.9348 0.015
          125       25.54 0.001    20.34      0.0000 0.014       8.09 0.001    20.34     0.82     52.9348 0.015
          126       21.73 0.003    15.09      0.0000 0.014       1.94 0.001    15.09     0.67     52.9348 0.015
          127       24.58 0.002    19.91      0.0000 0.014       8.73 0.002    19.91     0.81     52.9348 0.015
          128       31.13 0.005    19.48      0.0000 0.014       6.12 0.001    19.48     0.79     52.9348 0.015
          129       30.36 0.005    20.91      0.0000 0.014      18.18 0.001    20.91     0.83     52.9348 0.015
          130       25.67 0.001    17.14      0.0000 0.014       8.91 0.002    17.14     0.73     52.9348 0.015
          131       30.95 0.001    26.53      0.0000 0.014      15.62 0.000    26.53     0.98     52.9348 0.015
          132       33.18 0.004    21.36      0.0000 0.014      13.82 0.002    21.36     0.85     52.9348 0.015
          133       23.18 0.001    16.99      0.0000 0.014      10.07 0.001    16.99     0.73     52.9348 0.015
          134       38.50 0.001    32.38      0.0000 0.014      23.90 0.001    32.38     1.11     52.9348 0.015
          135       26.42 0.004    12.79      0.0000 0.014       1.73 0.002    12.79     0.60     52.9348 0.015
          136       21.26 0.001    19.51      0.0000 0.014       6.42 0.001    19.51     0.80     52.9348 0.015
          137       28.02 0.002    24.35      0.0000 0.014      14.63 0.001    24.35     0.92     52.9348 0.015
          138       27.40 0.001    16.67      0.0000 0.014       5.39 0.000    16.67     0.72     52.9348 0.015
          139       26.11 0.001    19.35      0.0000 0.014       9.27 0.000    19.35     0.79     52.9348 0.015
