                                  MODFLOW-NWT      
      U.S. GEOLOGICAL SURVEY MODULAR FINITE-DIFFERENCE GROUNDWATER-FLOW MODEL
                            VERSION 1.0.5 05/14/2012
                    BASED ON MODFLOW-2005 VERSION 1.9.01 05/01/2012

 LIST FILE: modflow_GMRW.out
                         UNIT 5007

 OPENING modflow_GMRW.hed
 FILE TYPE:DATA   UNIT 5030   STATUS:UNKNOWN
 FORMAT:FORMATTED              ACCESS:SEQUENTIAL          

 OPENING modflow_GMRW.ccf
 FILE TYPE:DATA(BINARY)   UNIT 5040   STATUS:UNKNOWN
 FORMAT:BINARY                 ACCESS:SEQUENTIAL          
# Global Input Files                                                                                                                                                                                                                                                                                        

 OPENING modflow_GMRW.dis
 FILE TYPE:DIS   UNIT 5010   STATUS:OLD    
 FORMAT:FORMATTED              ACCESS:SEQUENTIAL          
# Flow Process Input Files                                                                                                                                                                                                                                                                                  

 OPENING modflow_GMRW.bas
 FILE TYPE:BAS6   UNIT 5001   STATUS:OLD    
 FORMAT:FORMATTED              ACCESS:SEQUENTIAL          

 OPENING modflow_GMRW.upw
 FILE TYPE:UPW   UNIT 5011   STATUS:OLD    
 FORMAT:FORMATTED              ACCESS:SEQUENTIAL          

 OPENING modflow_GMRW.rch
 FILE TYPE:RCH   UNIT 5018   STATUS:OLD    
 FORMAT:FORMATTED              ACCESS:SEQUENTIAL          

 OPENING modflow_GMRW.riv
 FILE TYPE:RIV   UNIT 5008   STATUS:OLD    
 FORMAT:FORMATTED              ACCESS:SEQUENTIAL          

 OPENING modflow_GMRW.nwt
 FILE TYPE:NWT   UNIT 5013   STATUS:OLD    
 FORMAT:FORMATTED              ACCESS:SEQUENTIAL          

 OPENING modflow_GMRW.oc
 FILE TYPE:OC   UNIT 5022   STATUS:OLD    
 FORMAT:FORMATTED              ACCESS:SEQUENTIAL          

 OPENING modflow_GMRW.lmt
 FILE TYPE:LMT6   UNIT 5019   STATUS:OLD    
 FORMAT:FORMATTED              ACCESS:SEQUENTIAL          

 OPENING modflow_GMRW.evt
 FILE TYPE:EVT   UNIT 5020   STATUS:OLD    
 FORMAT:FORMATTED              ACCESS:SEQUENTIAL          

 OPENING modflow_GMRW.drn
 FILE TYPE:DRN   UNIT 5021   STATUS:OLD    
 FORMAT:FORMATTED              ACCESS:SEQUENTIAL          

 OPENING modflow_GMRW.wel
 FILE TYPE:WEL   UNIT 5023   STATUS:OLD    
 FORMAT:FORMATTED              ACCESS:SEQUENTIAL          

 BAS -- BASIC PACKAGE, VERSION 7, 5/2/2005 INPUT READ FROM UNIT 5001
 
 MODFLOW was compiled using mixed precision
 Precision of REAL variables:           6
 Precision of DOUBLE PRECISION variables:          15

 DISCRETIZATION INPUT DATA READ FROM UNIT 5010
 # Great Miami River Watershed groundwater flow model																																																																																																																																							
 # Discretization (DIS) input file																																																																																																																																							
    1 LAYERS       197 ROWS       135 COLUMNS
    1 STRESS PERIOD(S) IN SIMULATION
 MODEL TIME UNIT IS DAYS
 MODEL LENGTH UNIT IS METERS
  Confining bed flag for each layer:
   0

                     DELR =   913.259    

                     DELC =   918.071    



           TOP ELEVATION OF LAYER 1
 READING ON UNIT 5010 WITH FORMAT: (FREE)              



             MODEL LAYER BOTTOM EL. FOR LAYER   1
 READING ON UNIT 5010 WITH FORMAT: (FREE)              


 STRESS PERIOD     LENGTH       TIME STEPS     MULTIPLIER FOR DELT    SS FLAG
 ----------------------------------------------------------------------------
        1         8401.000          1                    1.000         TR

 TRANSIENT SIMULATION



 
 # Great Miami River Watershed groundwater flow model																												
 # Basic (bas) input file																																																								
 # Prepared by Ryan Bailey, Colorado State University, April-May 2015																																																																																																																																				
 # Modified by Seonggyu Park, Colorado State University, Jan-1  2016																																																																																																																																					
 THE FREE FORMAT OPTION HAS BEEN SELECTED



                     BOUNDARY ARRAY FOR LAYER   1
 READING ON UNIT 5001 WITH FORMAT: (FREE)              

 AQUIFER HEAD WILL BE SET TO  -999.00     AT ALL NO-FLOW NODES (IBOUND=0).



                       INITIAL HEAD FOR LAYER   1
 READING ON UNIT 5001 WITH FORMAT: (FREE)              
 # Great Miami River Watershed groundwater flow model
 #
 # Output Control (OC) input file
 # Prepared by Ryan Bailey, Colorado State University, April-May 2015

 OUTPUT CONTROL IS SPECIFIED ONLY AT TIME STEPS FOR WHICH OUTPUT IS DESIRED
 HEADS WILL BE SAVED WITH FORMAT: (213F10.2)          
 SAVED HEADS WILL BE LABELED
 COMPACT CELL-BY-CELL BUDGET FILES WILL BE WRITTEN
 AUXILIARY DATA WILL BE SAVED IN CELL-BY-CELL BUDGET FILES
 HEAD PRINT FORMAT CODE IS   0    DRAWDOWN PRINT FORMAT CODE IS   0
 HEADS WILL BE SAVED ON UNIT 5030    DRAWDOWNS WILL BE SAVED ON UNIT    0

 NWT1 -- Newton Solver, VERSION 1.0.6, 12/05/2012
         INPUT READ FROM UNIT***

 SIMPLE OPTION:
 DEFAULT SOLVER INPUT VALUES REFLECT NEARLY LINEAR MODEL
 ***GMRES linear solver will be used***
 
   CONVERGENCE CRITERION OF   0.100000E-03 FOR HEAD SOLUTION
   AND A TOLERANCE OF   0.500000E+03 FOR FLOW SOLUTION AND 
   A MAXIMUM OF   400 OUTER ITERATIONS. 


   D-B-D REDUCTION FACTOR OF    0.970000E+00 AND 
   A D-B-D INCREASE FACTOR OF    0.100000E-03 AND 
   A D-B-D RELAXATION OF    0.000000E+00 AND 
   A MOMENTUM FACTOR OF    0.000000E+00 .


 ***BACKTRACKING IS INACTIVE***
 GMRES -- LINEAR SOLUTION BY GMRES PACKAGE 
     adapted for HYDROTHERM by Kipp and others (2008)
     using software originally developed by Saad (1990)***
     using algorithms described in Saad (2003)

 UPW1 -- UPSTREAM WEIGHTING FLOW PACKAGE, VERSION 1.0.6, 12/05/2012
         INPUT READ FROM UNIT***

 # Great Miami River Watershed groundwater flow model
 # Upstream Weighting (UPW) package input file
 CELL-BY-CELL FLOWS WILL BE SAVED ON UNIT   40
 No named parameters

   LAYER FLAGS:
 LAYER       LAYTYP          LAYAVG    CHANI           LAYVKA           LAYWET
 ---------------------------------------------------------------------------
    1             1             1     1.000E+00             1             0

   INTERPRETATION OF LAYER FLAGS:
                        INTERBLOCK     HORIZONTAL    DATA IN
         LAYER TYPE   TRANSMISSIVITY   ANISOTROPY   ARRAY VKA   WETTABILITY
 LAYER   (LAYTYP)        (LAYAVG)      (CHANI)     (LAYVKA)       (LAYWET)
 ---------------------------------------------------------------------------
    1   CONVERTIBLE   LOGARITHMIC     1.000E+00    ANISOTROPY  NON-WETTABLE



              HYD. COND. ALONG ROWS FOR LAYER   1
 READING ON UNIT 5011 WITH FORMAT: (FREE)              

  HORIZ. TO VERTICAL ANI. =   1.00000     FOR LAYER   1

         SPECIFIC STORAGE =  5.000000E-05 FOR LAYER   1

           SPECIFIC YIELD =  0.200000     FOR LAYER   1

 WEL -- WELL PACKAGE, VERSION 1.0.6, 12/05/2012 INPUT READ FROM UNIT 5023
 #Well package input file
 No named parameters
 MAXIMUM OF    167 ACTIVE WELLS AT ONE TIME
 AUXILIARY WELL VARIABLE: IFACE           
 No named parameters
  PHIRAMP WILL BE SET TO A DEFAULT VALUE OF 0.05
  WELLS WITH REDUCED PUMPING WILL BE REPORTED TO THE MAIN LISTING FILE


     0 Well parameters

 DRN -- DRAIN PACKAGE, VERSION 7, 5/2/2005 INPUT READ FROM UNIT 5021
 #Drain package input file
 No named parameters
 MAXIMUM OF    332 ACTIVE DRAINS AT ONE TIME


     0 Drain parameters

 RIV -- RIVER PACKAGE, VERSION 7, 5/2/2005 INPUT READ FROM UNIT 5008
 # Little River Watershed groundwater flow model								
 No named parameters
 MAXIMUM OF   1511 ACTIVE RIVER REACHES AT ONE TIME


     0 River parameters

 EVT -- EVAPOTRANSPIRATION PACKAGE, VERSION 7, 5/2/2005
         INPUT READ FROM UNIT 5020
 # EVT: Evapotranspiration package file created on 7/6/2018 by ModelMuse version 3.10.0.0.
 No named parameters
 OPTION 3 -- EVAPOTRANSPIRATION FROM HIGHEST ACTIVE NODE IN EACH VERTICAL COLUMN


     0 Evapotranspiration parameters

 RCH -- RECHARGE PACKAGE, VERSION 7, 5/2/2005 INPUT READ FROM UNIT 5018
 # Great Miami River Watershed groundwater flow model
 No named parameters
 OPTION 3 -- RECHARGE TO HIGHEST ACTIVE NODE IN EACH VERTICAL COLUMN
 CELL-BY-CELL FLOWS WILL BE SAVED ON UNIT   40


     0 Recharge parameters
1
                            STRESS PERIOD NO.    1, LENGTH =   8401.000    
                            -----------------------------------------------

                              NUMBER OF TIME STEPS =     1

                               MULTIPLIER FOR DELT =     1.000

                            INITIAL TIME STEP SIZE =   8401.000    

 WELL NO.  LAYER   ROW   COL   STRESS RATE         IFACE           
 ------------------------------------------------------------------
      1      1     40     80      -222.7           0.000    
      2      1    106     92      -777.0           0.000    
      3      1     60    108      -305.2           0.000    
      4      1     88     67      -4625.           0.000    
      5      1     34     90      -195.3           0.000    
      6      1     71     61      -443.6           0.000    
      7      1     57     87      -79.07           0.000    
      8      1    105     83      -624.8           0.000    
      9      1     87     52      -154.7           0.000    
     10      1     77     88      -294.0           0.000    
     11      1    103     82      -56.78           0.000    
     12      1    101     84      -2206.           0.000    
     13      1     20     85      -138.0           0.000    
     14      1     82     41       0.000           0.000    
     15      1     57     71      -1351.           0.000    
     16      1     36     93      -176.1           0.000    
     17      1    110     82      -4054.           0.000    
     18      1     65     61       0.000           0.000    
     19      1    118     71      -123.3           0.000    
     20      1     63     67     -0.1420E+05       0.000    
     21      1     45     68      -200.9           0.000    
     22      1    105     48      -43.59           0.000    
     23      1     82     25      -138.9           0.000    
     24      1     94    102     -0.1558E+05       0.000    
     25      1     29    108      -73.94           0.000    
     26      1    114     72      -61.54           0.000    
     27      1    114     83      -4291.           0.000    
     28      1     97     70      -4081.           0.000    
     29      1     88    106      -12.82           0.000    
     30      1    118     76     -0.5522E+05       0.000    
     31      1    116     71     -0.2509E+05       0.000    
     32      1     34    108      -2613.           0.000    
     33      1     48     66      -1198.           0.000    
     34      1     55     65      -37.18           0.000    
     35      1     68     62       0.000           0.000    
     36      1    101    100       0.000           0.000    
     37      1    122     75      -514.1           0.000    
     38      1    112     84      -4.701           0.000    
     39      1     58     20      -88.01           0.000    
     40      1     67     39      -425.2           0.000    
     41      1     81    104      -2480.           0.000    
     42      1    106     58      -589.8           0.000    
     43      1    119     81      -246.6           0.000    
     44      1     49    106      -2340.           0.000    
     45      1     75     74      -47.01           0.000    
     46      1     77     94      -20.09           0.000    
     47      1     85     83      -49.58           0.000    
     48      1     94     47      -7.693           0.000    
     49      1    104     59       0.000           0.000    
     50      1    104     47      -8361.           0.000    
     51      1    105     92      -1465.           0.000    
     52      1     91    101       0.000           0.000    
     53      1     51    114      -5209.           0.000    
     54      1     67     65      -4209.           0.000    
     55      1     87    111      -339.7           0.000    
     56      1     92     69       0.000           0.000    
     57      1     83    106       0.000           0.000    
     58      1     64     35      -27.44           0.000    
     59      1    109     60      -1424.           0.000    
     60      1     80     20       0.000           0.000    
     61      1     79     52      -518.0           0.000    
     62      1     90     54       0.000           0.000    
     63      1     80     39      -38.46           0.000    
     64      1     85    120      -3175.           0.000    
     65      1     38     74      -16.09           0.000    
     66      1     51     49      -172.7           0.000    
     67      1     99     84      -634.2           0.000    
     68      1     68     24      -381.7           0.000    
     69      1     54     92      -129.1           0.000    
     70      1     79    106      -2243.           0.000    
     71      1    109     70      -4547.           0.000    
     72      1    117     65       0.000           0.000    
     73      1    120     71      -3077.           0.000    
     74      1    109     86      -227.1           0.000    
     75      1     70     80       0.000           0.000    
     76      1     65     47      -205.1           0.000    
     77      1     94    101       0.000           0.000    
     78      1    115     70      -8176.           0.000    
     79      1     35     96      -3.419           0.000    
     80      1     64     20      -113.6           0.000    
     81      1     77     45      -167.1           0.000    
     82      1     69    105      -357.8           0.000    
     83      1    119     71      -1832.           0.000    
     84      1     92    112      -18.93           0.000    
     85      1     74    108      -3053.           0.000    
     86      1    102     82      -955.8           0.000    
     87      1     85     28      -2.442           0.000    
     88      1     79     15      -18.93           0.000    
     89      1     72     17      -37.85           0.000    
     90      1     81    119      -37.85           0.000    
     91      1     38     93      -280.9           0.000    
     92      1    114     71      -20.76           0.000    
     93      1    110     97       0.000           0.000    
     94      1     84     30      -1184.           0.000    
     95      1     86    101      -24.42           0.000    
     96      1     80     45      -1134.           0.000    
     97      1     60     61      -2385.           0.000    
     98      1    174     33     -0.1933E+05       0.000    
     99      1    164     37       0.000           0.000    
    100      1     97     33      -266.3           0.000    
    101      1    161     44      -175.8           0.000    
    102      1    156     44      -1314.           0.000    
    103      1    146     58      -2833.           0.000    
    104      1    179     26     -0.3663E+05       0.000    
    105      1    128     68       0.000           0.000    
    106      1    133     60      -22.65           0.000    
    107      1    144     60      -2700.           0.000    
    108      1    105     23      -35.05           0.000    
    109      1    105     40      -36.76           0.000    
    110      1    176     30     -0.2000E+05       0.000    
    111      1    132     65      -823.0           0.000    
    112      1    141     60      -122.1           0.000    
    113      1    194     18      -1144.           0.000    
    114      1    125     34      -1194.           0.000    
    115      1    123     27      -515.4           0.000    
    116      1    151     49     -0.1150E+05       0.000    
    117      1    150     51      -152.6           0.000    
    118      1    131     65       0.000           0.000    
    119      1    176     28       0.000           0.000    
    120      1    113     36      -354.7           0.000    
    121      1    147     51      -165.0           0.000    
    122      1    133     64      -1331.           0.000    
    123      1    137     59      -2245.           0.000    
    124      1    153     49      -1184.           0.000    
    125      1    174     29      -2719.           0.000    
    126      1    156     45       0.000           0.000    
    127      1    156     47       0.000           0.000    
    128      1    173     33      -7039.           0.000    
    129      1    124     51      -429.5           0.000    
    130      1    125     37      -210.3           0.000    
    131      1    135     38      -73.51           0.000    
    132      1    155     51     -0.1743E+05       0.000    
    133      1    123     69     -0.1974E+05       0.000    
    134      1    125     67      -832.8           0.000    
    135      1    123     68      -9769.           0.000    
    136      1    108     51      -34.07           0.000    
    137      1    132     62      -2348.           0.000    
    138      1    153     48     -0.2492E+05       0.000    
    139      1    122     68      -9816.           0.000    
    140      1    158     43      -9328.           0.000    
    141      1    110     55      -5.678           0.000    
    142      1    113     27      -12.82           0.000    
    143      1    138     26      -252.2           0.000    
    144      1    121     68       0.000           0.000    
    145      1    154     20      -2492.           0.000    
    146      1    179     23     -0.2805E+05       0.000    
    147      1    162     37      -348.7           0.000    
    148      1    140     51      -641.1           0.000    
    149      1    139     60      -350.5           0.000    
    150      1    127     66      -244.2           0.000    
    151      1    134     22      -298.7           0.000    
    152      1    132     47      -163.3           0.000    
    153      1    157     56      -189.3           0.000    
    154      1    157     55      -47.32           0.000    
    155      1    132     67      -371.2           0.000    
    156      1    172     29       0.000           0.000    
    157      1    159     40      -1427.           0.000    
    158      1    148     54      -4021.           0.000    
    159      1    113     36      -8.548           0.000    
    160      1    127     66      -152.6           0.000    
    161      1    174     31      -4888.           0.000    
    162      1    124     70      -5533.           0.000    
    163      1    166     35       0.000           0.000    
    164      1    162     38      -36.63           0.000    
    165      1    126     67       0.000           0.000    
    166      1    164     37       0.000           0.000    
    167      1    130     66       0.000           0.000    

    167 WELLS

 DRAIN NO.  LAYER   ROW   COL     DRAIN EL.  CONDUCTANCE         
 ----------------------------------------------------------------
      1      1     99    111       313.5           100.0    
      2      1     99    112       314.8           100.0    
      3      1     99    113       316.4           100.0    
      4      1     99    114       327.5           100.0    
      5      1     99    115       327.3           100.0    
      6      1     99    116       329.6           100.0    
      7      1     99    117       334.2           100.0    
      8      1    100    117       331.7           100.0    
      9      1    100    118       336.5           100.0    
     10      1    100    119       343.2           100.0    
     11      1     99    119       344.9           100.0    
     12      1     99    118       336.6           100.0    
     13      1     98    118       338.1           100.0    
     14      1     98    119       344.6           100.0    
     15      1     97    119       346.2           100.0    
     16      1     97    118       338.3           100.0    
     17      1     96    118       344.4           100.0    
     18      1     96    119       346.1           100.0    
     19      1     96    120       353.9           100.0    
     20      1     95    120       359.2           100.0    
     21      1     95    121       369.6           100.0    
     22      1     94    121       372.0           100.0    
     23      1     94    120       361.8           100.0    
     24      1     94    122       372.7           100.0    
     25      1     94    123       374.2           100.0    
     26      1     93    123       361.9           100.0    
     27      1     60     94       310.6           100.0    
     28      1     61     94       330.7           100.0    
     29      1     61     93       333.8           100.0    
     30      1     62     92       340.2           100.0    
     31      1     62     93       336.1           100.0    
     32      1     63     93       335.9           100.0    
     33      1     63     92       336.6           100.0    
     34      1     64     92       338.4           100.0    
     35      1     64     93       339.7           100.0    
     36      1     65     93       342.8           100.0    
     37      1     65     92       339.9           100.0    
     38      1     66     91       345.1           100.0    
     39      1     67     91       352.2           100.0    
     40      1     68     91       357.5           100.0    
     41      1     69     91       362.0           100.0    
     42      1     69     90       359.7           100.0    
     43      1     69     89       351.1           100.0    
     44      1     70     89       326.3           100.0    
     45      1     71     89       348.4           100.0    
     46      1     72     89       360.7           100.0    
     47      1     73     89       359.8           100.0    
     48      1     74     89       363.9           100.0    
     49      1     74     88       365.6           100.0    
     50      1     73     88       364.1           100.0    
     51      1     72     88       362.5           100.0    
     52      1     71     88       357.9           100.0    
     53      1     70     88       343.4           100.0    
     54      1     70     86       353.4           100.0    
     55      1     70     85       353.0           100.0    
     56      1     70     84       351.6           100.0    
     57      1     80     76       295.0           100.0    
     58      1     80     74       302.7           100.0    
     59      1     80     75       310.0           100.0    
     60      1     80     76       313.3           100.0    
     61      1     79     76       316.4           100.0    
     62      1     79     77       321.8           100.0    
     63      1     79     78       327.5           100.0    
     64      1     79     79       332.6           100.0    
     65      1     79     80       336.2           100.0    
     66      1     78     80       337.6           100.0    
     67      1     77     80       338.9           100.0    
     68      1     76     80       339.9           100.0    
     69      1     76     81       342.8           100.0    
     70      1     77     81       342.8           100.0    
     71      1     78     81       341.8           100.0    
     72      1     78     82       346.3           100.0    
     73      1     77     82       345.7           100.0    
     74      1     76     82       345.0           100.0    
     75      1     76     83       351.3           100.0    
     76      1     77     83       349.8           100.0    
     77      1     78     83       350.1           100.0    
     78      1     78     84       355.1           100.0    
     79      1     80     10       341.4           100.0    
     80      1     80      9       339.5           100.0    
     81      1     81      9       342.8           100.0    
     82      1     82      9       344.8           100.0    
     83      1     82      8       345.6           100.0    
     84      1     82      7       345.1           100.0    
     85      1     83      7       345.8           100.0    
     86      1     83      8       346.6           100.0    
     87      1     84      8       349.4           100.0    
     88      1     84      7       346.6           100.0    
     89      1     85      7       348.7           100.0    
     90      1     85      8       350.6           100.0    
     91      1     86      8       352.3           100.0    
     92      1     87      8       354.4           100.0    
     93      1     88      8       356.5           100.0    
     94      1     88      7       352.5           100.0    
     95      1     88      6       355.4           100.0    
     96      1     88     18       324.9           100.0    
     97      1     89     18       326.3           100.0    
     98      1     90     18       332.0           100.0    
     99      1     91     18       332.2           100.0    
    100      1     92     18       333.4           100.0    
    101      1     92     17       330.1           100.0    
    102      1     93     17       332.1           100.0    
    103      1     94     17       336.6           100.0    
    104      1     94     16       335.2           100.0    
    105      1     93     16       342.2           100.0    
    106      1     92     16       345.3           100.0    
    107      1     95     16       330.9           100.0    
    108      1     95     17       341.3           100.0    
    109      1    107     29       324.7           100.0    
    110      1    107     28       326.4           100.0    
    111      1    107     27       329.2           100.0    
    112      1    107     26       333.7           100.0    
    113      1    108     26       336.4           100.0    
    114      1    109     26       335.6           100.0    
    115      1    110     26       335.0           100.0    
    116      1    111     26       334.6           100.0    
    117      1    111     25       336.0           100.0    
    118      1    111     24       339.6           100.0    
    119      1    111     23       344.2           100.0    
    120      1    112     23       343.2           100.0    
    121      1    113     23       341.1           100.0    
    122      1    114     23       337.6           100.0    
    123      1    115     23       335.7           100.0    
    124      1    115     22       339.3           100.0    
    125      1    115     21       345.0           100.0    
    126      1    115     20       347.9           100.0    
    127      1    115     19       350.8           100.0    
    128      1    114     19       349.6           100.0    
    129      1    114     20       349.7           100.0    
    130      1    113     19       352.1           100.0    
    131      1    112     19       353.2           100.0    
    132      1    112     18       354.6           100.0    
    133      1    128     14       334.6           100.0    
    134      1    127     14       334.2           100.0    
    135      1    126     14       334.4           100.0    
    136      1    125     14       338.9           100.0    
    137      1    125     15       345.8           100.0    
    138      1    124     15       345.9           100.0    
    139      1    123     15       347.8           100.0    
    140      1    122     15       349.8           100.0    
    141      1    122     16       355.7           100.0    
    142      1    121     16       354.4           100.0    
    143      1    120     16       361.4           100.0    
    144      1    120     17       360.8           100.0    
    145      1    121     17       362.5           100.0    
    146      1    121     18       356.2           100.0    
    147      1    120     18       353.9           100.0    
    148      1    120     19       350.7           100.0    
    149      1     51    114       352.7           100.0    
    150      1     50    114       357.9           100.0    
    151      1     49    114       375.5           100.0    
    152      1     49    113       421.7           100.0    
    153      1     48    112       431.6           100.0    
    154      1     47    112       414.0           100.0    
    155      1     47    111       429.4           100.0    
    156      1     47    110       453.0           100.0    
    157      1     48    110       430.8           100.0    
    158      1     48    111       428.4           100.0    
    159      1     48    109       426.9           100.0    
    160      1     47    109       435.6           100.0    
    161      1     47    108       413.3           100.0    
    162      1     47    107       392.3           100.0    
    163      1     46    107       405.3           100.0    
    164      1     46    108       424.6           100.0    
    165      1     45    108       422.2           100.0    
    166      1     45    107       403.3           100.0    
    167      1     44    107       402.2           100.0    
    168      1     44    108       417.0           100.0    
    169      1     43    108       415.8           100.0    
    170      1     43    107       393.5           100.0    
    171      1     42    107       392.6           100.0    
    172      1     42    108       406.5           100.0    
    173      1     41    108       399.3           100.0    
    174      1     41    107       390.3           100.0    
    175      1     29    106       315.5           100.0    
    176      1     28    106       318.2           100.0    
    177      1     27    106       323.6           100.0    
    178      1     26    106       327.5           100.0    
    179      1     25    106       330.4           100.0    
    180      1     24    107       331.5           100.0    
    181      1     25    107       329.7           100.0    
    182      1     27    107       322.4           100.0    
    183      1     28    107       317.8           100.0    
    184      1     29    107       319.1           100.0    
    185      1     38     66       296.9           100.0    
    186      1     38     67       297.8           100.0    
    187      1     38     68       301.9           100.0    
    188      1     37     69       300.8           100.0    
    189      1     37     71       305.7           100.0    
    190      1     37     72       311.3           100.0    
    191      1     37     73       313.7           100.0    
    192      1     37     74       319.0           100.0    
    193      1     38     70       306.8           100.0    
    194      1     38     71       309.0           100.0    
    195      1     54     75       306.4           100.0    
    196      1     55     75       314.9           100.0    
    197      1     56     75       313.6           100.0    
    198      1     57     76       319.1           100.0    
    199      1     58     77       320.4           100.0    
    200      1     59     78       321.2           100.0    
    201      1     60     79       322.8           100.0    
    202      1     61     79       322.1           100.0    
    203      1     62     79       322.9           100.0    
    204      1     63     79       328.9           100.0    
    205      1     63     80       327.5           100.0    
    206      1     63     81       323.2           100.0    
    207      1     64     81       324.0           100.0    
    208      1     65     81       332.4           100.0    
    209      1     65     80       332.7           100.0    
    210      1     64     80       329.1           100.0    
    211      1     79     99       314.4           100.0    
    212      1     78     98       321.7           100.0    
    213      1     77     97       330.9           100.0    
    214      1     77     96       326.7           100.0    
    215      1     77     95       336.3           100.0    
    216      1     77     94       358.8           100.0    
    217      1     78     94       363.3           100.0    
    218      1     79     94       362.4           100.0    
    219      1     79     93       365.8           100.0    
    220      1     78     93       368.0           100.0    
    221      1     77     93       368.6           100.0    
    222      1     77     91       370.4           100.0    
    223      1     78     91       368.6           100.0    
    224      1     79     91       363.5           100.0    
    225      1     79     90       364.1           100.0    
    226      1     78     90       367.5           100.0    
    227      1     77     90       366.5           100.0    
    228      1     88    105       292.4           100.0    
    229      1     88    106       302.5           100.0    
    230      1     88    107       321.3           100.0    
    231      1     88    108       332.8           100.0    
    232      1     88    109       337.1           100.0    
    233      1     88    110       336.6           100.0    
    234      1     89    111       333.2           100.0    
    235      1     89    112       329.5           100.0    
    236      1     89    113       327.4           100.0    
    237      1     89    114       324.7           100.0    
    238      1     89    115       331.0           100.0    
    239      1     89    116       328.5           100.0    
    240      1     90    116       320.2           100.0    
    241      1     90    115       320.6           100.0    
    242      1    165     49       220.1           100.0    
    243      1    166     49       223.4           100.0    
    244      1    166     50       240.6           100.0    
    245      1    166     51       248.5           100.0    
    246      1    167     51       236.3           100.0    
    247      1    149     68       240.0           100.0    
    248      1    149     69       244.4           100.0    
    249      1    150     69       258.4           100.0    
    250      1    150     70       255.1           100.0    
    251      1     64     36       307.6           100.0    
    252      1     63     36       312.5           100.0    
    253      1     62     36       309.6           100.0    
    254      1     62     35       305.8           100.0    
    255      1     61     35       305.4           100.0    
    256      1     60     35       304.7           100.0    
    257      1     59     34       303.8           100.0    
    258      1     58     34       309.2           100.0    
    259      1     57     34       313.5           100.0    
    260      1     58     33       311.4           100.0    
    261      1     92     38       308.7           100.0    
    262      1     93     38       309.8           100.0    
    263      1     93     37       310.9           100.0    
    264      1     93     36       312.5           100.0    
    265      1     93     35       314.7           100.0    
    266      1     93     34       316.9           100.0    
    267      1     94     34       316.6           100.0    
    268      1     94     33       316.4           100.0    
    269      1     94     32       320.0           100.0    
    270      1     94     31       320.4           100.0    
    271      1     95     31       321.4           100.0    
    272      1     95     32       319.6           100.0    
    273      1     96     32       317.6           100.0    
    274      1     93     32       318.7           100.0    
    275      1     93     31       321.1           100.0    
    276      1     96     31       321.2           100.0    
    277      1     44     83       310.2           100.0    
    278      1     44     82       309.9           100.0    
    279      1     44     81       308.8           100.0    
    280      1     44     80       311.9           100.0    
    281      1     44     79       311.8           100.0    
    282      1     43     79       311.4           100.0    
    283      1     43     80       310.3           100.0    
    284      1     42     80       311.7           100.0    
    285      1     42     79       312.2           100.0    
    286      1     42     78       313.8           100.0    
    287      1     42     77       313.5           100.0    
    288      1     42     76       313.8           100.0    
    289      1     42     75       313.1           100.0    
    290      1     42     74       311.5           100.0    
    291      1     42     73       313.0           100.0    
    292      1     43     73       312.4           100.0    
    293      1     43     74       313.3           100.0    
    294      1     43     75       313.5           100.0    
    295      1     43     76       314.0           100.0    
    296      1     43     77       313.3           100.0    
    297      1     44     77       313.8           100.0    
    298      1     44     76       318.7           100.0    
    299      1     44     75       314.7           100.0    
    300      1     45     75       317.2           100.0    
    301      1     46     75       317.4           100.0    
    302      1     47     75       316.4           100.0    
    303      1     81     73       293.6           100.0    
    304      1     82     73       285.6           100.0    
    305      1     83     73       282.0           100.0    
    306      1     84     73       281.2           100.0    
    307      1     80     73       295.0           100.0    
    308      1     79     75       311.3           100.0    
    309      1     78     76       319.9           100.0    
    310      1     76     77       326.8           100.0    
    311      1     74     78       336.9           100.0    
    312      1     72     79       340.3           100.0    
    313      1     70     79       335.3           100.0    
    314      1     69     79       334.9           100.0    
    315      1     69     81       341.2           100.0    
    316      1     68     84       344.9           100.0    
    317      1     65     84       324.3           100.0    
    318      1     65     83       322.9           100.0    
    319      1     67     83       336.1           100.0    
    320      1     67     81       336.3           100.0    
    321      1     67     79       333.2           100.0    
    322      1     70     81       338.2           100.0    
    323      1     71     81       341.5           100.0    
    324      1     81     85       360.6           100.0    
    325      1     83     85       352.8           100.0    
    326      1     83     87       361.9           100.0    
    327      1     81     87       359.9           100.0    
    328      1     81     88       360.6           100.0    
    329      1     78     86       368.1           100.0    
    330      1     75     86       369.2           100.0    
    331      1     73     83       352.2           100.0    
    332      1     73     82       345.8           100.0    

    332 DRAINS

 REACH NO.  LAYER   ROW   COL     STAGE      CONDUCTANCE     BOTTOM EL.         
 -------------------------------------------------------------------------------
      1      1    192     18       158.3          0.5158E+05       158.1    
      2      1    193     18       146.5          0.8021E+05       146.4    
      3      1    190     19       155.0          0.8048E+05       154.9    
      4      1    191     19       156.6          0.8048E+05       156.5    
      5      1    191     20       159.7          0.6962E+05       159.5    
      6      1    190     21       201.9          0.7809E+05       201.7    
      7      1    191     21       188.7          0.7809E+05       188.6    
      8      1    190     22       167.3          0.2531E+05       167.2    
      9      1    189     23       160.5          0.6703E+05       160.4    
     10      1    190     23       187.4          0.5856E+05       187.2    
     11      1    185     22       168.0          0.7739E+05       167.8    
     12      1    186     22       175.9          0.4878E+05       175.7    
     13      1    187     22       161.1          0.7618E+05       161.0    
     14      1    189     22       169.7          0.6374E+05       169.5    
     15      1    184     23       180.8          0.1168E+05       180.6    
     16      1    187     23       205.8          0.7618E+05       205.6    
     17      1    188     23       170.2          0.8119E+05       170.0    
     18      1    183     24       161.0          0.6800E+05       160.8    
     19      1    183     25       161.7          0.7077E+05       161.6    
     20      1    178     26       166.2          0.1067E+06       166.0    
     21      1    179     26       162.7          0.1067E+06       162.6    
     22      1    180     26       162.7          0.8224E+05       162.6    
     23      1    183     26       163.9          0.7623E+05       163.7    
     24      1    181     26       179.5          0.2865E+05       179.3    
     25      1    182     26       177.3          0.7874E+05       177.1    
     26      1    178     27       163.9          0.2041E+05       163.7    
     27      1    177     28       167.7          0.4512E+05       167.6    
     28      1    176     29       168.6          0.5238E+05       168.4    
     29      1    177     29       179.4          0.6269E+05       179.2    
     30      1    174     30       167.1          0.7819E+05       166.9    
     31      1    175     30       167.4          0.1005E+06       167.2    
     32      1    176     30       165.7          0.8352E+05       165.5    
     33      1    174     31       169.1          0.7819E+05       168.9    
     34      1    176     31       166.7          0.1006E+06       166.6    
     35      1    172     32       172.6          0.4863E+05       172.4    
     36      1    173     32       168.8          0.7668E+05       168.7    
     37      1    174     32       169.0          0.5680E+05       168.9    
     38      1    171     33       203.6          0.4561E+05       203.5    
     39      1    172     33       172.4          0.4222E+05       172.2    
     40      1    166     34       192.3          0.2204E+05       192.2    
     41      1    167     34       186.4          0.7055E+05       186.2    
     42      1    168     34       178.7          0.7414E+05       178.5    
     43      1    169     34       175.8          0.6930E+05       175.6    
     44      1    170     34       172.9          0.8202E+05       172.8    
     45      1    171     34       173.9          0.4784E+05       173.8    
     46      1    165     35       183.9          0.6112E+05       183.7    
     47      1    166     35       183.3          0.7005E+05       183.1    
     48      1    168     35       177.3          0.7414E+05       177.2    
     49      1    169     35       175.8          0.6930E+05       175.6    
     50      1    164     36       187.4          0.7787E+05       187.2    
     51      1    165     36       180.0          0.2475E+05       179.8    
     52      1    164     37       180.1          0.7098E+05       179.9    
     53      1    163     38       183.1          0.5600E+05       182.9    
     54      1    162     39       186.1          0.6845E+05       185.9    
     55      1    162     40       190.8          0.8626E+05       190.6    
     56      1    163     40       188.6          0.4511E+05       188.4    
     57      1    164     40       214.0          0.6202E+05       213.8    
     58      1    163     41       182.3          0.6202E+05       182.1    
     59      1    164     41       205.4          0.2745E+05       205.2    
     60      1    163     42       192.1          0.8724E+05       192.0    
     61      1    162     43       192.9          0.4239E+05       192.7    
     62      1    163     43       206.6          0.3597E+05       206.4    
     63      1    162     44       194.3          0.7587E+05       194.2    
     64      1    161     45       189.2          0.5260E+05       189.0    
     65      1    162     45       202.8          0.4725E+05       202.6    
     66      1    161     46       193.5          0.7610E+05       193.4    
     67      1    161     47       190.9          0.7254E+05       190.7    
     68      1    158     47       190.9          0.5193E+05       190.7    
     69      1    159     47       189.6          0.7276E+05       189.4    
     70      1    160     47       190.1          0.7077E+05       189.9    
     71      1    157     48       190.0          0.1439E+06       189.9    
     72      1    158     48       214.2          0.2322E+05       214.1    
     73      1    155     46       198.7          0.5245E+05       198.6    
     74      1    156     46       189.0          0.7363E+05       188.9    
     75      1    157     46       192.9          0.2584E+05       192.8    
     76      1    156     47       191.3          0.7240E+05       191.2    
     77      1    157     47       189.9          0.7240E+05       189.7    
     78      1    156     48       191.7          0.3799E+05       191.6    
     79      1    154     47       198.0          0.5095E+05       197.9    
     80      1    155     47       189.9          0.3271E+05       189.8    
     81      1    152     48       205.3          0.6427E+05       205.1    
     82      1    153     48       194.8          0.7271E+05       194.6    
     83      1    154     48       193.5          0.6858E+05       193.4    
     84      1    150     49       194.2          0.7482E+05       194.1    
     85      1    151     49       195.0          0.7355E+05       194.8    
     86      1    152     49       197.8          0.6427E+05       197.6    
     87      1    149     51       198.5          0.7369E+05       198.4    
     88      1    150     51       199.1          0.7369E+05       198.9    
     89      1    148     52       199.5          0.6560E+05       199.3    
     90      1    149     52       202.1          0.4879E+05       201.9    
     91      1    148     53       199.8          0.7211E+05       199.6    
     92      1    149     53       204.7          0.1699E+05       204.6    
     93      1    149     54       215.2          0.3735E+05       215.1    
     94      1    148     54       201.5          0.7295E+05       201.3    
     95      1    148     55       206.5          0.7206E+05       206.3    
     96      1    148     56       218.7          0.5105E+05       218.6    
     97      1    147     56       204.3          0.7509E+05       204.2    
     98      1    147     57       207.1          0.7007E+05       207.0    
     99      1    145     58       206.2          0.7567E+05       206.0    
    100      1    146     58       205.6          0.4515E+05       205.5    
    101      1    147     58       210.7          0.4131E+05       210.5    
    102      1    137     59       223.2          0.7299E+05       223.1    
    103      1    138     59       213.0          0.6937E+05       212.8    
    104      1    139     59       220.1          0.7925E+05       220.0    
    105      1    141     59       213.3          0.1086E+06       213.2    
    106      1    144     59       206.8          0.6559E+05       206.6    
    107      1    145     59       206.8          0.7567E+05       206.6    
    108      1    146     59       218.1          0.3857E+05       217.9    
    109      1    136     60       214.8          0.7031E+05       214.7    
    110      1    137     60       234.4          0.7299E+05       234.3    
    111      1    139     60       223.9          0.7925E+05       223.8    
    112      1    140     60       213.9          0.7157E+05       213.7    
    113      1    141     60       208.6          0.1086E+06       208.5    
    114      1    142     60       206.6          0.9117E+05       206.5    
    115      1    143     60       206.0          0.8161E+05       205.9    
    116      1    144     60       222.1          0.2597E+05       221.9    
    117      1    135     60       214.0          0.6255E+05       213.9    
    118      1    133     61       215.5          0.2151E+05       215.3    
    119      1    134     61       220.1          0.7950E+05       220.0    
    120      1    135     61       229.7          0.1699E+05       229.5    
    121      1    130     62       242.0          0.8834E+05       241.8    
    122      1    131     62       216.9          0.8834E+05       216.8    
    123      1    132     62       214.1          0.8791E+05       214.0    
    124      1    133     62       214.8          0.9241E+05       214.7    
    125      1    130     63       253.1          0.6426E+05       253.0    
    126      1    130     64       228.9          0.6426E+05       228.7    
    127      1    131     64       217.8          0.3641E+05       217.6    
    128      1    132     64       218.6          0.6497E+05       218.4    
    129      1    131     65       218.7          0.3766E+05       218.5    
    130      1    131     66       221.7          0.6944E+05       221.6    
    131      1    127     65       222.4          0.7341E+05       222.3    
    132      1    128     65       220.4          0.7647E+05       220.2    
    133      1    129     65       218.9          0.6827E+05       218.8    
    134      1    130     65       218.3          0.7327E+05       218.1    
    135      1    126     66       224.0          0.3414E+05       223.8    
    136      1    127     66       224.2          0.7341E+05       224.1    
    137      1    126     67       234.3          0.7094E+05       234.2    
    138      1    122     67       226.4          0.6097E+05       226.3    
    139      1    123     67       226.3          0.8655E+05       226.2    
    140      1    125     67       223.1          0.7094E+05       223.0    
    141      1    123     68       226.1          0.8655E+05       226.0    
    142      1    124     68       221.6          0.7077E+05       221.4    
    143      1    125     68       219.7          0.8432E+05       219.6    
    144      1    121     67       237.4           7614.           237.3    
    145      1    121     68       230.9          0.7170E+05       230.7    
    146      1    120     67       237.0           7653.           236.8    
    147      1    120     68       225.1          0.7323E+05       225.0    
    148      1    119     67       236.7          0.6649E+05       236.6    
    149      1    118     68       232.7          0.3696E+05       232.6    
    150      1    119     68       227.2          0.7881E+05       227.0    
    151      1    117     69       229.9          0.8275E+05       229.8    
    152      1    118     69       227.6          0.8275E+05       227.4    
    153      1    102     70       242.9          0.8473E+05       242.7    
    154      1    103     70       243.5          0.5235E+05       243.4    
    155      1    104     70       255.2          0.7321E+05       255.1    
    156      1    105     70       279.0          0.5461E+05       278.9    
    157      1    108     70       246.0          0.6992E+05       245.9    
    158      1    109     70       242.7          0.7355E+05       242.5    
    159      1    110     70       240.9          0.7748E+05       240.8    
    160      1    111     70       240.3          0.7263E+05       240.1    
    161      1    112     70       239.5          0.7410E+05       239.4    
    162      1    113     70       238.1          0.7410E+05       237.9    
    163      1    117     70       230.3          0.7203E+05       230.1    
    164      1    100     71       240.4          0.7240E+05       240.3    
    165      1    101     71       239.3          0.3623E+05       239.2    
    166      1    102     71       243.0          0.8473E+05       242.9    
    167      1    105     71       254.7          0.5461E+05       254.5    
    168      1    106     71       239.5          0.7768E+05       239.3    
    169      1    107     71       252.3          0.7436E+05       252.1    
    170      1    108     71       270.9          0.6992E+05       270.7    
    171      1    114     71       232.4          0.7551E+05       232.3    
    172      1    116     71       229.6          0.7936E+05       229.4    
    173      1    117     71       230.5          0.7414E+05       230.3    
    174      1     98     72       240.7          0.6302E+05       240.5    
    175      1     99     72       246.9          0.8676E+05       246.7    
    176      1    100     72       256.4          0.7240E+05       256.3    
    177      1    101     72       257.8          0.3617E+05       257.6    
    178      1    114     72       240.5          0.7551E+05       240.3    
    179      1    115     72       230.9          0.7905E+05       230.8    
    180      1    116     72       233.1          0.7936E+05       233.0    
    181      1     92     67       251.4          0.1052E+06       251.3    
    182      1     92     68       247.0          0.8286E+05       246.9    
    183      1     93     68       251.2          0.8473E+05       251.0    
    184      1     94     68       270.1          0.2687E+05       270.0    
    185      1     94     69       252.7          0.5984E+05       252.6    
    186      1     95     69       250.3          0.7672E+05       250.1    
    187      1     96     69       259.1          0.2979E+05       258.9    
    188      1     96     70       245.6          0.7937E+05       245.5    
    189      1     97     70       245.8          0.4963E+05       245.7    
    190      1     97     71       242.1          0.6718E+05       242.0    
    191      1     98     71       241.1          0.8701E+05       241.0    
    192      1     85     66       254.3          0.1483E+05       254.1    
    193      1     86     66       253.9          0.3238E+05       253.8    
    194      1     87     66       254.0          0.7507E+05       253.9    
    195      1     88     66       252.7          0.3963E+05       252.5    
    196      1     88     67       253.2          0.8598E+05       253.0    
    197      1     89     67       251.9           5302.           251.7    
    198      1     89     68       250.0          0.7549E+05       249.8    
    199      1     90     68       249.8          0.7085E+05       249.6    
    200      1     91     68       247.9          0.8136E+05       247.7    
    201      1    121     69       225.4          0.6536E+05       225.2    
    202      1    120     70       226.9          0.2755E+05       226.7    
    203      1    121     70       226.7          0.4637E+05       226.6    
    204      1    120     71       225.1          0.8051E+05       224.9    
    205      1    119     72       227.9          0.2890E+05       227.8    
    206      1    120     72       229.7          0.5589E+05       229.6    
    207      1    119     73       229.7          0.8035E+05       229.6    
    208      1    118     74       231.1          0.2257E+05       231.0    
    209      1    119     74       232.8          0.6065E+05       232.7    
    210      1    117     75       238.0          0.8823E+05       237.9    
    211      1    118     75       235.7          0.8823E+05       235.5    
    212      1    117     76       238.4          0.7244E+05       238.2    
    213      1    117     77       241.2          0.7904E+05       241.1    
    214      1    115     78       262.7          0.1915E+05       262.5    
    215      1    116     78       245.9          0.8465E+05       245.7    
    216      1    117     78       248.9          0.5893E+05       248.7    
    217      1    114     79       256.2          0.1846E+05       256.0    
    218      1    115     79       244.1          0.8568E+05       243.9    
    219      1    114     80       251.8          0.7262E+05       251.7    
    220      1    112     80       260.0          0.9913E+05       259.8    
    221      1    113     80       266.3          0.3357E+05       266.2    
    222      1    111     81       248.0          0.3894E+05       247.9    
    223      1    112     81       248.6          0.9913E+05       248.4    
    224      1     75     63       261.7          0.8512E+05       261.5    
    225      1     76     63       262.1          0.7077E+05       262.0    
    226      1     77     63       264.4          0.6833E+05       264.2    
    227      1     78     63       265.5          0.6623E+05       265.4    
    228      1     79     63       266.7          0.7211E+05       266.6    
    229      1     75     64       271.2          0.5335E+05       271.1    
    230      1     79     64       264.5          0.7211E+05       264.3    
    231      1     80     64       261.4          0.5776E+05       261.3    
    232      1     81     64       263.7          0.7358E+05       263.5    
    233      1     81     65       268.2          0.7358E+05       268.0    
    234      1     82     65       259.2           7146.           259.0    
    235      1     83     65       256.0          0.8213E+05       255.9    
    236      1     84     65       256.2          0.7974E+05       256.0    
    237      1     84     66       258.0          0.7888E+05       257.9    
    238      1    111     82       247.5          0.9199E+05       247.4    
    239      1    110     83       249.6          0.8673E+05       249.4    
    240      1    111     83       249.1          0.5451E+05       248.9    
    241      1    109     84       252.0          0.9610E+05       251.9    
    242      1    110     84       250.3          0.9257E+05       250.1    
    243      1    104     58       250.4          0.4082E+05       250.3    
    244      1    105     58       251.4          0.6589E+05       251.3    
    245      1    106     58       251.8          0.6671E+05       251.6    
    246      1    107     58       252.8          0.6543E+05       252.7    
    247      1    108     58       265.6          0.7880E+05       265.4    
    248      1    108     59       247.1          0.7880E+05       247.0    
    249      1    109     59       256.4          0.5232E+05       256.3    
    250      1    109     60       238.9          0.9211E+05       238.7    
    251      1    109     61       258.9          0.2097E+05       258.8    
    252      1    110     61       240.8          0.7762E+05       240.7    
    253      1    111     61       255.6          0.4575E+05       255.5    
    254      1    111     62       247.0          0.5722E+05       246.8    
    255      1    112     62       254.1          0.5211E+05       254.0    
    256      1    112     63       244.3          0.5420E+05       244.2    
    257      1    113     63       252.8          0.2286E+05       252.6    
    258      1    113     64       239.9          0.6935E+05       239.7    
    259      1    113     65       240.5          0.7762E+05       240.3    
    260      1    113     66       259.0          0.7762E+05       258.8    
    261      1    114     66       241.5          0.7762E+05       241.4    
    262      1    115     66       233.5          0.7067E+05       233.3    
    263      1    115     67       237.7          0.7981E+05       237.5    
    264      1    116     67       232.5          0.7981E+05       232.4    
    265      1    117     67       244.2          0.7095E+05       244.1    
    266      1    118     67       244.3          0.6892E+05       244.1    
    267      1     71     61       272.2          0.5315E+05       272.1    
    268      1     72     61       264.6          0.7042E+05       264.5    
    269      1     73     61       269.0          0.6169E+05       268.8    
    270      1     70     62       272.9          0.4110E+05       272.7    
    271      1     71     62       265.3          0.5306E+05       265.2    
    272      1     73     62       266.9          0.4750E+05       266.8    
    273      1     74     62       266.5          0.6076E+05       266.4    
    274      1     74     63       269.1          0.3400E+05       269.0    
    275      1    108     84       255.2          0.8994E+05       255.1    
    276      1    107     85       255.4          0.9117E+05       255.3    
    277      1    108     85       254.3          0.9156E+05       254.1    
    278      1    107     86       256.2          0.8180E+05       256.1    
    279      1    106     87       258.1          0.1626E+05       257.9    
    280      1    107     87       258.1          0.7953E+05       257.9    
    281      1    106     88       258.3          0.7448E+05       258.2    
    282      1     93     55       258.5          0.6050E+05       258.4    
    283      1     95     55       275.3          0.1926E+05       275.2    
    284      1     96     55       262.2          0.7009E+05       262.1    
    285      1     97     55       260.9          0.6915E+05       260.7    
    286      1     98     55       265.1          0.4940E+05       264.9    
    287      1     99     55       280.9          0.9326E+05       280.7    
    288      1     93     56       261.3          0.3516E+05       261.2    
    289      1     94     56       260.9          0.7208E+05       260.8    
    290      1     95     56       269.4          0.7245E+05       269.2    
    291      1     99     56       271.6          0.9326E+05       271.4    
    292      1    100     56       265.1          0.6895E+05       265.0    
    293      1    100     57       266.3          0.6895E+05       266.2    
    294      1    101     57       257.9          0.7728E+05       257.8    
    295      1    102     57       259.1          0.7856E+05       259.0    
    296      1    102     58       251.6          0.7704E+05       251.4    
    297      1    103     58       251.2          0.7704E+05       251.1    
    298      1     70     63       265.4          0.8133E+05       265.2    
    299      1     70     64       273.9          0.7822E+05       273.8    
    300      1     66     65       283.2          0.7866E+05       283.0    
    301      1     67     65       278.8          0.6833E+05       278.6    
    302      1     68     65       280.6          0.4576E+05       280.5    
    303      1     69     65       277.6          0.4576E+05       277.4    
    304      1     70     65       290.8          0.7822E+05       290.6    
    305      1     65     66       291.8          0.7998E+05       291.7    
    306      1     66     66       293.6          0.1584E+05       293.4    
    307      1     64     67       299.0          0.7983E+05       298.9    
    308      1     65     67       301.3          0.1191E+05       301.2    
    309      1     62     67       308.3          0.6777E+05       308.1    
    310      1     63     67       304.8          0.3387E+05       304.6    
    311      1     61     68       293.0          0.7702E+05       292.8    
    312      1     62     68       299.9          0.6777E+05       299.8    
    313      1     61     69       294.0          0.2489E+05       293.9    
    314      1     57     70       299.2          0.1301E+05       299.0    
    315      1     58     70       293.7          0.7159E+05       293.6    
    316      1     59     70       290.7          0.9021E+05       290.5    
    317      1     60     70       292.9          0.7684E+05       292.8    
    318      1     61     70       314.6          0.3151E+05       314.5    
    319      1     57     71       291.4          0.4931E+05       291.3    
    320      1    106     89       260.3          0.7495E+05       260.1    
    321      1    105     90       263.2          0.7091E+05       263.1    
    322      1    106     90       261.7          0.8951E+05       261.6    
    323      1    105     91       263.5          0.8219E+05       263.4    
    324      1    106     91       262.7          0.8219E+05       262.5    
    325      1    105     92       264.0          0.8599E+05       263.8    
    326      1    104     93       269.1          0.5732E+05       268.9    
    327      1    105     93       276.0          0.2969E+05       275.8    
    328      1    103     94       277.4          0.4120E+05       277.2    
    329      1    103     95       276.2          0.7217E+05       276.0    
    330      1    102     96       290.3          0.7507E+05       290.2    
    331      1    103     96       283.6          0.7507E+05       283.4    
    332      1    101     97       304.4          0.8511E+05       304.3    
    333      1    102     97       288.3          0.8511E+05       288.1    
    334      1    101     98       282.3          0.7428E+05       282.1    
    335      1    101     99       286.4          0.1461E+05       286.2    
    336      1    101    100       273.9          0.5628E+05       273.8    
    337      1     55     71       311.1          0.2764E+05       311.0    
    338      1     56     71       294.6          0.6996E+05       294.5    
    339      1     55     72       293.5          0.8108E+05       293.4    
    340      1    139     53       219.1          0.4585E+05       219.0    
    341      1    140     53       222.1          0.7883E+05       222.0    
    342      1    141     53       241.1          0.8731E+05       240.9    
    343      1    146     53       212.2          0.7877E+05       212.1    
    344      1    139     54       231.2          0.4132E+05       231.1    
    345      1    140     54       220.7          0.7883E+05       220.5    
    346      1    141     54       223.0          0.8731E+05       222.9    
    347      1    142     54       227.6          0.7465E+05       227.5    
    348      1    143     54       229.3          0.1636E+05       229.2    
    349      1    145     54       210.4          0.6614E+05       210.3    
    350      1    146     54       205.2          0.7877E+05       205.0    
    351      1    147     54       201.0          0.3466E+05       200.9    
    352      1     87     52       265.3          0.7587E+05       265.2    
    353      1     88     52       263.6          0.5061E+05       263.4    
    354      1     89     52       265.6          0.6200E+05       265.4    
    355      1     83     53       276.2          0.5642E+05       276.1    
    356      1     84     53       276.1          0.6856E+05       275.9    
    357      1     85     53       275.3          0.6856E+05       275.1    
    358      1     89     53       262.6          0.3924E+05       262.4    
    359      1     90     53       259.9          0.5807E+05       259.7    
    360      1     90     54       263.1          0.3301E+05       263.0    
    361      1     91     54       261.7          0.6986E+05       261.5    
    362      1     91     55       259.9          0.3071E+05       259.7    
    363      1     92     55       254.8          0.7292E+05       254.6    
    364      1     79     52       276.8          0.4414E+05       276.6    
    365      1     80     52       274.2          0.7111E+05       274.1    
    366      1     81     52       276.6          0.8791E+05       276.5    
    367      1     82     53       280.4          0.5642E+05       280.3    
    368      1     99     99       284.9          0.2234E+05       284.8    
    369      1    100     99       282.0          0.7423E+05       281.9    
    370      1     98    100       279.9          0.6196E+05       279.8    
    371      1     99    100       276.0          0.6685E+05       275.9    
    372      1     96    101       279.1          0.6448E+05       279.0    
    373      1     97    101       278.9          0.8227E+05       278.7    
    374      1     98    101       279.5          0.5559E+05       279.3    
    375      1     91    102       286.2          0.3801E+05       286.1    
    376      1     92    102       285.3          0.7192E+05       285.2    
    377      1     93    102       284.1          0.7958E+05       284.0    
    378      1     94    102       282.4          0.4537E+05       282.2    
    379      1     95    102       279.6          0.1222E+06       279.5    
    380      1     96    102       279.8          0.6448E+05       279.6    
    381      1     94    103       283.9          0.4853E+05       283.7    
    382      1     95    103       283.0          0.1222E+06       282.9    
    383      1    135     46       241.3          0.3453E+05       241.1    
    384      1    135     47       232.4          0.6384E+05       232.2    
    385      1    136     47       249.2          0.7403E+05       249.1    
    386      1    137     47       266.3          0.7403E+05       266.2    
    387      1    137     48       253.3          0.7814E+05       253.1    
    388      1    137     49       260.6          0.7206E+05       260.5    
    389      1    138     49       253.5          0.7206E+05       253.4    
    390      1    138     50       227.9          0.7787E+05       227.8    
    391      1    139     50       235.6          0.7008E+05       235.4    
    392      1    139     51       223.9          0.7008E+05       223.8    
    393      1    139     52       218.0          0.3000E+05       217.8    
    394      1    140     52       231.6          0.6913E+05       231.4    
    395      1    159     35       195.2          0.6325E+05       195.1    
    396      1    159     36       191.3          0.7288E+05       191.2    
    397      1    159     37       188.9          0.4233E+05       188.8    
    398      1    160     37       191.7          0.1100E+06       191.6    
    399      1    161     37       206.6          0.7333E+05       206.5    
    400      1    162     37       178.6          0.7947E+05       178.4    
    401      1    163     37       181.3          0.7098E+05       181.1    
    402      1    160     38       186.1          0.1100E+06       186.0    
    403      1     76     52       274.3          0.7436E+05       274.2    
    404      1     77     52       275.8          0.2985E+05       275.6    
    405      1     78     52       278.6          0.2988E+05       278.4    
    406      1     64     61       279.0          0.7173E+05       278.9    
    407      1     65     61       272.6          0.4790E+05       272.5    
    408      1     66     61       271.7          0.7572E+05       271.6    
    409      1     66     62       277.6           7932.           277.5    
    410      1     67     62       273.5          0.7594E+05       273.4    
    411      1     68     62       271.3          0.6890E+05       271.2    
    412      1     69     62       274.7          0.7098E+05       274.5    
    413      1     68     63       285.0          0.1317E+05       284.9    
    414      1     69     63       280.3          0.1922E+05       280.1    
    415      1    135     39       247.1          0.4499E+05       247.0    
    416      1    135     40       244.7          0.3978E+05       244.5    
    417      1    136     40       245.0          0.4421E+05       244.8    
    418      1    135     41       243.4          0.7459E+05       243.2    
    419      1    134     42       241.7          0.5355E+05       241.6    
    420      1    135     42       257.0          0.3705E+05       256.9    
    421      1    134     43       241.9          0.4172E+05       241.7    
    422      1    135     43       245.2          0.4692E+05       245.0    
    423      1    135     44       249.4          0.7017E+05       249.3    
    424      1    135     45       235.8          0.7323E+05       235.6    
    425      1     89    102       289.2          0.7577E+05       289.0    
    426      1     90    102       287.4          0.8474E+05       287.2    
    427      1     83    103       296.4          0.5494E+05       296.2    
    428      1     84    103       295.8          0.7877E+05       295.6    
    429      1     85    103       294.4          0.7829E+05       294.2    
    430      1     86    103       292.8          0.1011E+06       292.6    
    431      1     87    103       291.7          0.8373E+05       291.5    
    432      1     88    103       290.1          0.9356E+05       290.0    
    433      1     89    103       288.9          0.7577E+05       288.7    
    434      1     87    104       292.9          0.8373E+05       292.8    
    435      1     88    104       292.3          0.9356E+05       292.1    
    436      1     54     73       313.6          0.8780E+05       313.4    
    437      1     55     73       292.9          0.9816E+05       292.7    
    438      1     53     74       314.0          0.8780E+05       313.8    
    439      1     54     74       299.0          0.8780E+05       298.9    
    440      1     53     75       296.2          0.7114E+05       296.1    
    441      1     52     76       302.2          0.3205E+05       302.0    
    442      1     53     76       309.5          0.5419E+05       309.4    
    443      1     51     77       308.4          0.2786E+05       308.3    
    444      1     52     77       308.3          0.9026E+05       308.1    
    445      1     51     78       305.4          0.3504E+05       305.3    
    446      1     51     79       305.5          0.6984E+05       305.3    
    447      1     51     80       309.5          0.5415E+05       309.4    
    448      1     52     80       309.2          0.2669E+05       309.1    
    449      1     52     81       312.1          0.6439E+05       312.0    
    450      1     53     81       314.0          0.2736E+05       313.9    
    451      1     53     82       306.4          0.8180E+05       306.3    
    452      1     53     83       312.4          0.1626E+05       312.3    
    453      1     54     83       315.2          0.6554E+05       315.0    
    454      1     54     84       309.0          0.6069E+05       308.8    
    455      1     55     84       316.4          0.3317E+05       316.2    
    456      1     55     85       310.3          0.7089E+05       310.1    
    457      1     54     86       319.8          0.7239E+05       319.7    
    458      1     55     86       317.3          0.7239E+05       317.2    
    459      1     55     87       300.6          0.9380E+05       300.5    
    460      1     55     88       314.0          0.7532E+05       313.9    
    461      1     55     89       306.0          0.6962E+05       305.8    
    462      1     55     90       299.5          0.7288E+05       299.3    
    463      1     55     91       300.5          0.5850E+05       300.4    
    464      1     54     91       304.0          0.6996E+05       303.9    
    465      1    129     37       265.7          0.5687E+05       265.6    
    466      1    130     37       274.5          0.8059E+05       274.3    
    467      1    131     37       265.2          0.6943E+05       265.0    
    468      1    132     37       265.1          0.7085E+05       264.9    
    469      1    128     38       265.1          0.6530E+05       264.9    
    470      1    129     38       270.9          0.1537E+05       270.8    
    471      1    132     38       265.0          0.3658E+05       264.8    
    472      1    133     38       252.6          0.8031E+05       252.5    
    473      1    134     38       252.7          0.4957E+05       252.6    
    474      1    133     39       264.0          0.8031E+05       263.8    
    475      1    134     39       246.3          0.4084E+05       246.2    
    476      1     62     54       285.6          0.3584E+05       285.4    
    477      1     63     54       288.0          0.3432E+05       287.9    
    478      1     62     55       286.6          0.6946E+05       286.5    
    479      1     63     55       294.2          0.1918E+05       294.1    
    480      1     62     56       287.3          0.4666E+05       287.1    
    481      1     62     57       287.2          0.5589E+05       287.0    
    482      1     62     58       288.5          0.7014E+05       288.4    
    483      1     63     58       296.5          0.7014E+05       296.4    
    484      1     63     59       285.5          0.5851E+05       285.3    
    485      1     63     60       287.5          0.4192E+05       287.3    
    486      1     64     60       279.4          0.6508E+05       279.2    
    487      1     48     90       307.0          0.7483E+05       306.8    
    488      1     49     90       308.4          0.7403E+05       308.2    
    489      1     50     90       304.0          0.1173E+06       303.9    
    490      1     51     90       307.8          0.3300E+05       307.7    
    491      1     47     91       305.2          0.5402E+05       305.1    
    492      1     48     91       312.2          0.7483E+05       312.1    
    493      1     51     91       305.6          0.5681E+05       305.4    
    494      1     52     91       304.6          0.7131E+05       304.5    
    495      1     53     91       302.6          0.6833E+05       302.5    
    496      1     70     39       300.7          0.3152E+05       300.5    
    497      1     71     39       298.8          0.5132E+05       298.7    
    498      1     71     40       295.4          0.8142E+05       295.2    
    499      1     71     41       296.4          0.7928E+05       296.2    
    500      1     72     41       300.1          0.7928E+05       299.9    
    501      1     73     41       300.3          0.8751E+05       300.2    
    502      1     72     42       299.8          0.7492E+05       299.7    
    503      1     73     42       299.6          0.8751E+05       299.4    
    504      1     74     42       298.9          0.5313E+05       298.8    
    505      1     73     43       296.7          0.5313E+05       296.5    
    506      1     74     43       293.4          0.4749E+05       293.2    
    507      1     73     44       296.7          0.7088E+05       296.5    
    508      1     74     44       296.0          0.7088E+05       295.9    
    509      1     73     45       287.7          0.1206E+06       287.5    
    510      1     74     45       297.5          0.1206E+06       297.3    
    511      1     73     46       297.0          0.1178E+06       296.9    
    512      1     74     46       297.0          0.1673E+05       296.8    
    513      1     74     47       295.7          0.5530E+05       295.5    
    514      1     74     48       291.5          0.3730E+05       291.4    
    515      1     75     48       286.3          0.5825E+05       286.1    
    516      1     75     49       286.4          0.8113E+05       286.3    
    517      1     75     50       292.4          0.5932E+05       292.2    
    518      1     76     50       285.6          0.8446E+05       285.5    
[...]

    ------------------------------------------------
       NWT REQUIRED           11 OUTER ITERATIONS 
       AND A TOTAL OF         29 INNER ITERATIONS.
    ------------------------------------------------

 NO OUTPUT CONTROL FOR STRESS PERIOD    1   TIME STEP 8088
 
 SOLVING FOR HEAD 

    ------------------------------------------------
       NWT REQUIRED            4 OUTER ITERATIONS 
       AND A TOTAL OF         13 INNER ITERATIONS.
    ------------------------------------------------

 NO OUTPUT CONTROL FOR STRESS PERIOD    1   TIME STEP 8089
 
 SOLVING FOR HEAD 

    ------------------------------------------------
       NWT REQUIRED            3 OUTER ITERATIONS 
       AND A TOTAL OF          9 INNER ITERATIONS.
    ------------------------------------------------

 NO OUTPUT CONTROL FOR STRESS PERIOD    1   TIME STEP 8090
 
 SOLVING FOR HEAD 

    ------------------------------------------------
       NWT REQUIRED            4 OUTER ITERATIONS 
       AND A TOTAL OF         14 INNER ITERATIONS.
    ------------------------------------------------

 NO OUTPUT CONTROL FOR STRESS PERIOD    1   TIME STEP 8091
 
 SOLVING FOR HEAD 

    ------------------------------------------------
       NWT REQUIRED            4 OUTER ITERATIONS 
       AND A TOTAL OF         11 INNER ITERATIONS.
    ------------------------------------------------

 NO OUTPUT CONTROL FOR STRESS PERIOD    1   TIME STEP 8092
 
 SOLVING FOR HEAD 

    ------------------------------------------------
       NWT REQUIRED            4 OUTER ITERATIONS 
       AND A TOTAL OF         12 INNER ITERATIONS.
    ------------------------------------------------

 NO OUTPUT CONTROL FOR STRESS PERIOD    1   TIME STEP 8093
 
 SOLVING FOR HEAD 

    ------------------------------------------------
       NWT REQUIRED            5 OUTER ITERATIONS 
       AND A TOTAL OF         15 INNER ITERATIONS.
    ------------------------------------------------

 NO OUTPUT CONTROL FOR STRESS PERIOD    1   TIME STEP 8094
 
 SOLVING FOR HEAD 

    ------------------------------------------------
       NWT REQUIRED            4 OUTER ITERATIONS 
       AND A TOTAL OF         14 INNER ITERATIONS.
    ------------------------------------------------

 NO OUTPUT CONTROL FOR STRESS PERIOD    1   TIME STEP 8095
 
 SOLVING FOR HEAD 

    ------------------------------------------------
       NWT REQUIRED            3 OUTER ITERATIONS 
       AND A TOTAL OF         10 INNER ITERATIONS.
    ------------------------------------------------

 NO OUTPUT CONTROL FOR STRESS PERIOD    1   TIME STEP 8096
 
 SOLVING FOR HEAD 

    ------------------------------------------------
       NWT REQUIRED            4 OUTER ITERATIONS 
       AND A TOTAL OF         14 INNER ITERATIONS.
    ------------------------------------------------

 NO OUTPUT CONTROL FOR STRESS PERIOD    1   TIME STEP 8097
 
 SOLVING FOR HEAD 

    ------------------------------------------------
       NWT REQUIRED            6 OUTER ITERATIONS 
       AND A TOTAL OF         22 INNER ITERATIONS.
    ------------------------------------------------

 NO OUTPUT CONTROL FOR STRESS PERIOD    1   TIME STEP 8098
 
 SOLVING FOR HEAD 

    ------------------------------------------------
       NWT REQUIRED            5 OUTER ITERATIONS 
       AND A TOTAL OF         17 INNER ITERATIONS.
    ------------------------------------------------

 NO OUTPUT CONTROL FOR STRESS PERIOD    1   TIME STEP 8099
 
 SOLVING FOR HEAD 

    ------------------------------------------------
       NWT REQUIRED            4 OUTER ITERATIONS 
       AND A TOTAL OF         14 INNER ITERATIONS.
    ------------------------------------------------

 NO OUTPUT CONTROL FOR STRESS PERIOD    1   TIME STEP 8100
 
 SOLVING FOR HEAD 

    ------------------------------------------------
       NWT REQUIRED            4 OUTER ITERATIONS 
       AND A TOTAL OF         13 INNER ITERATIONS.
    ------------------------------------------------

 NO OUTPUT CONTROL FOR STRESS PERIOD    1   TIME STEP 8101
 
 SOLVING FOR HEAD 

    ------------------------------------------------
       NWT REQUIRED            4 OUTER ITERATIONS 
       AND A TOTAL OF         12 INNER ITERATIONS.
    ------------------------------------------------

 NO OUTPUT CONTROL FOR STRESS PERIOD    1   TIME STEP 8102
 
 SOLVING FOR HEAD 

    ------------------------------------------------
       NWT REQUIRED            4 OUTER ITERATIONS 
       AND A TOTAL OF         14 INNER ITERATIONS.
    ------------------------------------------------

 NO OUTPUT CONTROL FOR STRESS PERIOD    1   TIME STEP 8103
 
 SOLVING FOR HEAD 

    ------------------------------------------------
       NWT REQUIRED            4 OUTER ITERATIONS 
       AND A TOTAL OF         12 INNER ITERATIONS.
    ------------------------------------------------

 NO OUTPUT CONTROL FOR STRESS PERIOD    1   TIME STEP 8104
 
 SOLVING FOR HEAD 

    ------------------------------------------------
       NWT REQUIRED            5 OUTER ITERATIONS 
       AND A TOTAL OF         15 INNER ITERATIONS.
    ------------------------------------------------

 NO OUTPUT CONTROL FOR STRESS PERIOD    1   TIME STEP 8105
 
 SOLVING FOR HEAD 

    ------------------------------------------------
       NWT REQUIRED            8 OUTER ITERATIONS 
       AND A TOTAL OF         22 INNER ITERATIONS.
    ------------------------------------------------

 NO OUTPUT CONTROL FOR STRESS PERIOD    1   TIME STEP 8106
 
 SOLVING FOR HEAD 

    ------------------------------------------------
       NWT REQUIRED            3 OUTER ITERATIONS 
       AND A TOTAL OF          8 INNER ITERATIONS.
    ------------------------------------------------

 NO OUTPUT CONTROL FOR STRESS PERIOD    1   TIME STEP 8107
 
 SOLVING FOR HEAD 

    ------------------------------------------------
       NWT REQUIRED            4 OUTER ITERATIONS 
       AND A TOTAL OF         12 INNER ITERATIONS.
    ------------------------------------------------

 NO OUTPUT CONTROL FOR STRESS PERIOD    1   TIME STEP 8108
 
 SOLVING FOR HEAD 

    ------------------------------------------------
       NWT REQUIRED            4 OUTER ITERATIONS 
       AND A TOTAL OF         14 INNER ITERATIONS.
    ------------------------------------------------

 NO OUTPUT CONTROL FOR STRESS PERIOD    1   TIME STEP 8109
 
 SOLVING FOR HEAD 

    ------------------------------------------------
       NWT REQUIRED            3 OUTER ITERATIONS 
       AND A TOTAL OF         10 INNER ITERATIONS.
    ------------------------------------------------

 NO OUTPUT CONTROL FOR STRESS PERIOD    1   TIME STEP 8110
 
 SOLVING FOR HEAD 

    ------------------------------------------------
       NWT REQUIRED            4 OUTER ITERATIONS 
       AND A TOTAL OF         14 INNER ITERATIONS.
    ------------------------------------------------

 NO OUTPUT CONTROL FOR STRESS PERIOD    1   TIME STEP 8111
 
 SOLVING FOR HEAD 

    ------------------------------------------------
       NWT REQUIRED            4 OUTER ITERATIONS 
       AND A TOTAL OF         13 INNER ITERATIONS.
    ------------------------------------------------

 NO OUTPUT CONTROL FOR STRESS PERIOD    1   TIME STEP 8112
 
 SOLVING FOR HEAD 

    ------------------------------------------------
       NWT REQUIRED            3 OUTER ITERATIONS 
       AND A TOTAL OF         10 INNER ITERATIONS.
    ------------------------------------------------

 NO OUTPUT CONTROL FOR STRESS PERIOD    1   TIME STEP 8113
 
 SOLVING FOR HEAD 

    ------------------------------------------------
       NWT REQUIRED            5 OUTER ITERATIONS 
       AND A TOTAL OF         14 INNER ITERATIONS.
    ------------------------------------------------

 NO OUTPUT CONTROL FOR STRESS PERIOD    1   TIME STEP 8114
 
 SOLVING FOR HEAD 

    ------------------------------------------------
       NWT REQUIRED            6 OUTER ITERATIONS 
       AND A TOTAL OF         17 INNER ITERATIONS.
    ------------------------------------------------

 NO OUTPUT CONTROL FOR STRESS PERIOD    1   TIME STEP 8115
 
 SOLVING FOR HEAD 

    ------------------------------------------------
       NWT REQUIRED            7 OUTER ITERATIONS 
       AND A TOTAL OF         21 INNER ITERATIONS.
    ------------------------------------------------

 NO OUTPUT CONTROL FOR STRESS PERIOD    1   TIME STEP 8116
 
 SOLVING FOR HEAD 

    ------------------------------------------------
       NWT REQUIRED            4 OUTER ITERATIONS 
       AND A TOTAL OF         11 INNER ITERATIONS.
    ------------------------------------------------

 NO OUTPUT CONTROL FOR STRESS PERIOD    1   TIME STEP 8117
 
 SOLVING FOR HEAD 

    ------------------------------------------------
       NWT REQUIRED            4 OUTER ITERATIONS 
       AND A TOTAL OF         14 INNER ITERATIONS.
    ------------------------------------------------

 NO OUTPUT CONTROL FOR STRESS PERIOD    1   TIME STEP 8118
 
 SOLVING FOR HEAD 

    ------------------------------------------------
       NWT REQUIRED            6 OUTER ITERATIONS 
       AND A TOTAL OF         23 INNER ITERATIONS.
    ------------------------------------------------

 NO OUTPUT CONTROL FOR STRESS PERIOD    1   TIME STEP 8119
 
 SOLVING FOR HEAD 

    ------------------------------------------------
       NWT REQUIRED            6 OUTER ITERATIONS 
       AND A TOTAL OF         22 INNER ITERATIONS.
    ------------------------------------------------

 NO OUTPUT CONTROL FOR STRESS PERIOD    1   TIME STEP 8120
 
 SOLVING FOR HEAD 

    ------------------------------------------------
       NWT REQUIRED            6 OUTER ITERATIONS 
       AND A TOTAL OF         22 INNER ITERATIONS.
    ------------------------------------------------

 NO OUTPUT CONTROL FOR STRESS PERIOD    1   TIME STEP 8121
 
 SOLVING FOR HEAD 

    ------------------------------------------------
       NWT REQUIRED            5 OUTER ITERATIONS 
       AND A TOTAL OF         17 INNER ITERATIONS.
    ------------------------------------------------

 NO OUTPUT CONTROL FOR STRESS PERIOD    1   TIME STEP 8122
 
 SOLVING FOR HEAD 

    ------------------------------------------------
       NWT REQUIRED            4 OUTER ITERATIONS 
       AND A TOTAL OF         13 INNER ITERATIONS.
    ------------------------------------------------

 NO OUTPUT CONTROL FOR STRESS PERIOD    1   TIME STEP 8123
 
 SOLVING FOR HEAD 

    ------------------------------------------------
       NWT REQUIRED            4 OUTER ITERATIONS 
       AND A TOTAL OF         13 INNER ITERATIONS.
    ------------------------------------------------

 NO OUTPUT CONTROL FOR STRESS PERIOD    1   TIME STEP 8124
 
 SOLVING FOR HEAD 

    ------------------------------------------------
       NWT REQUIRED            4 OUTER ITERATIONS 
       AND A TOTAL OF         15 INNER ITERATIONS.
    ------------------------------------------------

 NO OUTPUT CONTROL FOR STRESS PERIOD    1   TIME STEP 8125
 
 SOLVING FOR HEAD 

    ------------------------------------------------
       NWT REQUIRED            5 OUTER ITERATIONS 
       AND A TOTAL OF         20 INNER ITERATIONS.
    ------------------------------------------------

 NO OUTPUT CONTROL FOR STRESS PERIOD    1   TIME STEP 8126
 
 SOLVING FOR HEAD 

    ------------------------------------------------
       NWT REQUIRED            4 OUTER ITERATIONS 
       AND A TOTAL OF         15 INNER ITERATIONS.
    ------------------------------------------------

 NO OUTPUT CONTROL FOR STRESS PERIOD    1   TIME STEP 8127
 
 SOLVING FOR HEAD 

    ------------------------------------------------
       NWT REQUIRED            4 OUTER ITERATIONS 
       AND A TOTAL OF         13 INNER ITERATIONS.
    ------------------------------------------------

 NO OUTPUT CONTROL FOR STRESS PERIOD    1   TIME STEP 8128
 
 SOLVING FOR HEAD 

    ------------------------------------------------
       NWT REQUIRED            5 OUTER ITERATIONS 
       AND A TOTAL OF         20 INNER ITERATIONS.
    ------------------------------------------------

 NO OUTPUT CONTROL FOR STRESS PERIOD    1   TIME STEP 8129
 
 SOLVING FOR HEAD 

    ------------------------------------------------
       NWT REQUIRED            4 OUTER ITERATIONS 
       AND A TOTAL OF         14 INNER ITERATIONS.
    ------------------------------------------------

 NO OUTPUT CONTROL FOR STRESS PERIOD    1   TIME STEP 8130
 
 SOLVING FOR HEAD 

    ------------------------------------------------
       NWT REQUIRED            6 OUTER ITERATIONS 
       AND A TOTAL OF         27 INNER ITERATIONS.
    ------------------------------------------------

 NO OUTPUT CONTROL FOR STRESS PERIOD    1   TIME STEP 8131
 
 SOLVING FOR HEAD 

    ------------------------------------------------
       NWT REQUIRED            7 OUTER ITERATIONS 
       AND A TOTAL OF         23 INNER ITERATIONS.
    ------------------------------------------------

 NO OUTPUT CONTROL FOR STRESS PERIOD    1   TIME STEP 8132
 
 SOLVING FOR HEAD 

    ------------------------------------------------
       NWT REQUIRED            3 OUTER ITERATIONS 
       AND A TOTAL OF         10 INNER ITERATIONS.
    ------------------------------------------------

 NO OUTPUT CONTROL FOR STRESS PERIOD    1   TIME STEP 8133
 
 SOLVING FOR HEAD 

    ------------------------------------------------
       NWT REQUIRED            5 OUTER ITERATIONS 
       AND A TOTAL OF         18 INNER ITERATIONS.
    ------------------------------------------------

 NO OUTPUT CONTROL FOR STRESS PERIOD    1   TIME STEP 8134
 
 SOLVING FOR HEAD 

    ------------------------------------------------
       NWT REQUIRED            4 OUTER ITERATIONS 
       AND A TOTAL OF         15 INNER ITERATIONS.
    ------------------------------------------------

 NO OUTPUT CONTROL FOR STRESS PERIOD    1   TIME STEP 8135
 
 SOLVING FOR HEAD 

    ------------------------------------------------
       NWT REQUIRED            5 OUTER ITERATIONS 
       AND A TOTAL OF         19 INNER ITERATIONS.
    ------------------------------------------------

 NO OUTPUT CONTROL FOR STRESS PERIOD    1   TIME STEP 8136
 
 SOLVING FOR HEAD 

    ------------------------------------------------
       NWT REQUIRED            9 OUTER ITERATIONS 
       AND A TOTAL OF         25 INNER ITERATIONS.
    ------------------------------------------------

 NO OUTPUT CONTROL FOR STRESS PERIOD    1   TIME STEP 8137
 
 SOLVING FOR HEAD 

    ------------------------------------------------
       NWT REQUIRED            4 OUTER ITERATIONS 
       AND A TOTAL OF         14 INNER ITERATIONS.
    ------------------------------------------------

 NO OUTPUT CONTROL FOR STRESS PERIOD    1   TIME STEP 8138
 
 SOLVING FOR HEAD 

    ------------------------------------------------
       NWT REQUIRED            5 OUTER ITERATIONS 
       AND A TOTAL OF         15 INNER ITERATIONS.
    ------------------------------------------------

 NO OUTPUT CONTROL FOR STRESS PERIOD    1   TIME STEP 8139
 
 SOLVING FOR HEAD 

    ------------------------------------------------
       NWT REQUIRED            4 OUTER ITERATIONS 
       AND A TOTAL OF         13 INNER ITERATIONS.
    ------------------------------------------------

 NO OUTPUT CONTROL FOR STRESS PERIOD    1   TIME STEP 8140
 
 SOLVING FOR HEAD 

    ------------------------------------------------
       NWT REQUIRED            4 OUTER ITERATIONS 
       AND A TOTAL OF         12 INNER ITERATIONS.
    ------------------------------------------------

 NO OUTPUT CONTROL FOR STRESS PERIOD    1   TIME STEP 8141
 
 SOLVING FOR HEAD 

    ------------------------------------------------
       NWT REQUIRED            5 OUTER ITERATIONS 
       AND A TOTAL OF         17 INNER ITERATIONS.
    ------------------------------------------------

 NO OUTPUT CONTROL FOR STRESS PERIOD    1   TIME STEP 8142
 
 SOLVING FOR HEAD 

    ------------------------------------------------
       NWT REQUIRED            4 OUTER ITERATIONS 
       AND A TOTAL OF         13 INNER ITERATIONS.
    ------------------------------------------------

 NO OUTPUT CONTROL FOR STRESS PERIOD    1   TIME STEP 8143
 
 SOLVING FOR HEAD 

    ------------------------------------------------
       NWT REQUIRED            5 OUTER ITERATIONS 
       AND A TOTAL OF         16 INNER ITERATIONS.
    ------------------------------------------------

 NO OUTPUT CONTROL FOR STRESS PERIOD    1   TIME STEP 8144
 
 SOLVING FOR HEAD 

    ------------------------------------------------
       NWT REQUIRED            4 OUTER ITERATIONS 
       AND A TOTAL OF         13 INNER ITERATIONS.
    ------------------------------------------------

 NO OUTPUT CONTROL FOR STRESS PERIOD    1   TIME STEP 8145
 
 SOLVING FOR HEAD 

    ------------------------------------------------
       NWT REQUIRED            4 OUTER ITERATIONS 
       AND A TOTAL OF         14 INNER ITERATIONS.
    ------------------------------------------------

 NO OUTPUT CONTROL FOR STRESS PERIOD    1   TIME STEP 8146
 
 SOLVING FOR HEAD 

    ------------------------------------------------
       NWT REQUIRED            4 OUTER ITERATIONS 
       AND A TOTAL OF         14 INNER ITERATIONS.
    ------------------------------------------------

 NO OUTPUT CONTROL FOR STRESS PERIOD    1   TIME STEP 8147
 
 SOLVING FOR HEAD 

    ------------------------------------------------
       NWT REQUIRED            4 OUTER ITERATIONS 
       AND A TOTAL OF         13 INNER ITERATIONS.
    ------------------------------------------------

 NO OUTPUT CONTROL FOR STRESS PERIOD    1   TIME STEP 8148
 
 SOLVING FOR HEAD 

    ------------------------------------------------
       NWT REQUIRED            6 OUTER ITERATIONS 
       AND A TOTAL OF         21 INNER ITERATIONS.
    ------------------------------------------------

 NO OUTPUT CONTROL FOR STRESS PERIOD    1   TIME STEP 8149
 
 SOLVING FOR HEAD 

    ------------------------------------------------
       NWT REQUIRED            4 OUTER ITERATIONS 
       AND A TOTAL OF         10 INNER ITERATIONS.
    ------------------------------------------------

 NO OUTPUT CONTROL FOR STRESS PERIOD    1   TIME STEP 8150
 
 SOLVING FOR HEAD 

    ------------------------------------------------
       NWT REQUIRED            4 OUTER ITERATIONS 
       AND A TOTAL OF         14 INNER ITERATIONS.
    ------------------------------------------------

 NO OUTPUT CONTROL FOR STRESS PERIOD    1   TIME STEP 8151
 
 SOLVING FOR HEAD 

    ------------------------------------------------
       NWT REQUIRED            4 OUTER ITERATIONS 
       AND A TOTAL OF         11 INNER ITERATIONS.
    ------------------------------------------------

 NO OUTPUT CONTROL FOR STRESS PERIOD    1   TIME STEP 8152
 
 SOLVING FOR HEAD 

    ------------------------------------------------
       NWT REQUIRED            4 OUTER ITERATIONS 
       AND A TOTAL OF         13 INNER ITERATIONS.
    ------------------------------------------------

 NO OUTPUT CONTROL FOR STRESS PERIOD    1   TIME STEP 8153
 
 SOLVING FOR HEAD 

    ------------------------------------------------
       NWT REQUIRED            6 OUTER ITERATIONS 
       AND A TOTAL OF         19 INNER ITERATIONS.
    ------------------------------------------------

 NO OUTPUT CONTROL FOR STRESS PERIOD    1   TIME STEP 8154
 
 SOLVING FOR HEAD 

    ------------------------------------------------
       NWT REQUIRED            3 OUTER ITERATIONS 
       AND A TOTAL OF         10 INNER ITERATIONS.
    ------------------------------------------------

 NO OUTPUT CONTROL FOR STRESS PERIOD    1   TIME STEP 8155
 
 SOLVING FOR HEAD 

    ------------------------------------------------
       NWT REQUIRED            3 OUTER ITERATIONS 
       AND A TOTAL OF         10 INNER ITERATIONS.
    ------------------------------------------------

 NO OUTPUT CONTROL FOR STRESS PERIOD    1   TIME STEP 8156
