1
    SWAT Mar 17 2015    VER 2012/Rev 636_smrt                                                            0/ 0/   0      0: 0: 0

    General Input/Output section (file.cio):                                        
    3/18/2025 12:00:00 AM ARCGIS-SWAT interface AV                                  
                                                                                    


       SUB      GIS  MON   AREAkm2  PRECIPmm SNOMELTmm     PETmm      ETmm      SWmm    PERCmm    SURQmm    GW_Qmm    WYLDmm  SYLDt/ha ORGNkg/ha ORGPkg/haNSURQkg/ha SOLPkg/ha SEDPkg/ha LAT Q(mm)LATNO3kg/hGWNO3kg/haCHOLAmic/LCBODU mg/L DOXQ mg/L TNO3kg/ha
BIGSUB   1        0 2003.39329E+02  1322.000   136.694  1042.380   788.642    90.715     0.000   203.511     0.000   530.145    73.583    19.706     3.058     2.878     0.023     5.719   326.634     3.977     0.000 .00000E+00 0.000E+00 0.000E+00 0.000E+00
BIGSUB   2        0 2003.13580E+03  1298.800   144.330  1041.391   788.153    90.506     0.000   181.401     0.000   504.360    51.719    12.738     2.158     3.599     0.019     5.045   322.958     4.001     0.000 .00000E+00 0.000E+00 0.000E+00 0.000E+00
BIGSUB   3        0 2003.14611E+03  1277.600   131.501  1040.758   660.695   178.329    48.557    37.180     0.000   573.348   141.419     9.857     1.225     0.001     0.001     3.196   536.168     0.418     0.000 .00000E+00 0.000E+00 0.000E+00 0.000E+00
BIGSUB   4        0 2003.40478E+02  1259.100   157.861  1030.548   793.836   178.993     4.512   207.919     0.000   402.937     1.625     2.325     0.474     3.402     0.040     1.094   195.017     3.181     0.000 .00000E+00 0.000E+00 0.000E+00 0.000E+00
BIGSUB   5        0 2003.35903E+01  1259.100   157.891  1030.338   787.147   160.676     0.000   186.426     0.000   421.733     3.431     3.083     0.620     3.375     0.043     1.415   235.307     3.600     0.000 .00000E+00 0.000E+00 0.000E+00 0.000E+00
BIGSUB   6        0 2003.35801E+01  1259.100   156.788  1030.091   850.766   180.000   127.451    27.891     0.000   267.196     0.051     0.138     0.017     0.013     0.007     0.042   239.305     0.564     0.000 .00000E+00 0.000E+00 0.000E+00 0.000E+00
BIGSUB   7        0 2003.81622E+02  1253.800   153.559   980.024   747.967   150.258     0.000   182.696     0.000   448.636     4.329     3.253     0.638     3.434     0.027     1.495   265.939     3.855     0.000 .00000E+00 0.000E+00 0.000E+00 0.000E+00
BIGSUB   8        0 2003.37902E+02  1252.900   151.315   979.571   763.532   179.111    28.153   226.051     0.000   399.275     1.030     1.684     0.367     3.352     0.044     0.748   173.224     2.683     0.000 .00000E+00 0.000E+00 0.000E+00 0.000E+00
BIGSUB   9        0 2003.50283E+02  1261.000   124.451   979.470   634.164   178.516    53.242    54.457     0.000   559.515   182.301    11.223     1.396     0.002     0.001     3.691   505.058     0.395     0.000 .00000E+00 0.000E+00 0.000E+00 0.000E+00
BIGSUB  10        0 2003.47997E+02  1261.000   124.468   978.721   641.204   178.521   106.285    56.731     0.000   499.904   113.050    14.684     1.820     0.002     0.002     4.723   443.173     0.365     0.000 .00000E+00 0.000E+00 0.000E+00 0.000E+00
BIGSUB  11        0 2003.53852E+02  1271.100   127.176   978.358   630.330   178.524    93.194    53.373     0.000   525.706   108.600    11.637     1.446     0.001     0.002     3.744   472.333     0.375     0.000 .00000E+00 0.000E+00 0.000E+00 0.000E+00
BIGSUB  12        0 2003.25271E+01  1271.100   127.183   978.055   636.200   178.526   159.588    54.052     0.000   455.596    80.242    14.238     1.765     0.001     0.003     4.507   401.543     0.331     0.000 .00000E+00 0.000E+00 0.000E+00 0.000E+00
BIGSUB  13        0 2003.22422E+01  1271.000   118.585   977.966   633.171   178.541   252.009    61.469     0.000   369.354    35.199    16.533     2.046     0.001     0.006     5.151   307.885     0.253     0.000 .00000E+00 0.000E+00 0.000E+00 0.000E+00
BIGSUB  14        0 2003.13292E+03  1281.600   119.584   977.020   628.510   178.533   128.647    61.785     0.000   497.520    68.037    18.027     2.235     0.001     0.004     5.687   435.735     0.358     0.000 .00000E+00 0.000E+00 0.000E+00 0.000E+00
BIGSUB  15        0 2003.10831E+02  1291.400   141.730   976.171   764.592   179.123    34.582   240.839     0.000   404.414     1.414     2.166     0.433     2.029     0.049     0.954   163.394     1.809     0.000 .00000E+00 0.000E+00 0.000E+00 0.000E+00
BIGSUB  16        0 2003.49593E+02  1306.900   166.516   963.960   742.818   179.657    85.989   268.230     0.000   401.213     0.648     1.403     0.268     2.567     0.046     0.577   132.525     0.936     0.000 .00000E+00 0.000E+00 0.000E+00 0.000E+00
BIGSUB  17        0 2003.14826E+03  1278.700   118.932   977.674   631.476   178.528   155.795    60.516     0.000   467.201    74.518    21.065     2.610     0.001     0.004     6.628   405.800     0.338     0.000 .00000E+00 0.000E+00 0.000E+00 0.000E+00
BIGSUB  18        0 2003.67887E+02  1317.400   158.911   963.418   736.517   179.555    62.441   281.945     0.000   431.003     1.034     1.836     0.343     2.831     0.042     0.770   148.731     1.068     0.000 .00000E+00 0.000E+00 0.000E+00 0.000E+00
BIGSUB  19        0 2003.18573E+00  1278.700   142.441   977.347   757.388   172.415     0.000   198.585     0.000   425.258     2.297     2.999     0.537     2.466     0.070     0.934   226.673     2.767     0.000 .00000E+00 0.000E+00 0.000E+00 0.000E+00
BIGSUB  20        0 2003.14568E+01  1278.700   142.419   977.248   768.212   179.118    48.972   232.788     0.000   380.365     0.852     1.665     0.336     2.130     0.063     0.613   147.316     1.907     0.000 .00000E+00 0.000E+00 0.000E+00 0.000E+00
BIGSUB  21        0 2003.96526E+02  1283.300   124.201   977.262   627.405   178.531   121.738    59.515     0.000   509.517    90.518    17.562     2.177     0.001     0.003     5.578   449.298     0.361     0.000 .00000E+00 0.000E+00 0.000E+00 0.000E+00
BIGSUB  22        0 2003.33778E+02  1317.400   158.957   962.942   731.931   179.499    24.180   265.793     0.000   458.251     2.122     2.568     0.490     2.929     0.039     1.092   192.341     1.327     0.000 .00000E+00 0.000E+00 0.000E+00 0.000E+00
BIGSUB  23        0 2003.67360E+01  1276.500   138.654   991.133   777.739   179.179    99.348   247.360     0.000   359.637     0.288     0.799     0.178     3.085     0.060     0.298   111.738     1.359     0.000 .00000E+00 0.000E+00 0.000E+00 0.000E+00
BIGSUB  24        0 2003.61572E+02  1295.500   150.441   976.405   769.283   179.121    45.863   243.929     0.000   399.333     1.149     1.927     0.379     1.773     0.042     0.856   155.161     1.816     0.000 .00000E+00 0.000E+00 0.000E+00 0.000E+00
BIGSUB  25        0 2003.70143E+02  1322.600   149.215   962.312   729.942   179.497    12.218   249.853     0.000   465.096     2.503     2.778     0.523     2.026     0.034     1.201   215.191     1.552     0.000 .00000E+00 0.000E+00 0.000E+00 0.000E+00
BIGSUB  26        0 2003.89333E+02  1283.700   139.160   990.766   769.519   179.087    15.820   235.632     0.000   429.221     1.640     2.080     0.437     2.101     0.039     0.960   193.513     2.322     0.000 .00000E+00 0.000E+00 0.000E+00 0.000E+00
BIGSUB  27        0 2003.55870E+01  1333.000   122.462   961.827   616.851   180.847   105.655    88.739     0.000   550.186   258.013    24.325     3.022     0.001     0.003     7.773   460.854     0.342     0.000 .00000E+00 0.000E+00 0.000E+00 0.000E+00
BIGSUB  28        0 2003.16286E+02  1252.900   151.318   979.654   750.127   149.840     0.000   189.959     0.000   448.162     3.626     2.946     0.613     3.404     0.034     1.318   258.204     3.696     0.000 .00000E+00 0.000E+00 0.000E+00 0.000E+00
BIGSUB  29        0 2003.84670E+02  1311.900   188.513   964.109   744.718   179.516    64.756   264.201     0.000   418.841     1.031     1.839     0.339     1.224     0.041     0.775   154.301     1.145     0.000 .00000E+00 0.000E+00 0.000E+00 0.000E+00
BIGSUB  30        0 2003.20923E+02  1322.700   176.206   963.573   741.883   179.675    91.216   284.285     0.000   410.466     0.692     1.524     0.290     1.829     0.050     0.621   125.697     0.879     0.000 .00000E+00 0.000E+00 0.000E+00 0.000E+00
BIGSUB  31        0 2003.77724E+02  1283.700   139.202   990.123   763.124   173.220     0.000   212.986     0.000   450.235     3.121     2.904     0.554     2.060     0.031     1.325   237.249     2.730     0.000 .00000E+00 0.000E+00 0.000E+00 0.000E+00
BIGSUB  32        0 2003.44429E+02  1263.400   149.742   979.355   748.622   141.371     0.000   176.263     0.000   452.319     6.335     3.963     0.711     3.339     0.026     1.820   276.056     3.729     0.000 .00000E+00 0.000E+00 0.000E+00 0.000E+00
BIGSUB  33        0 2003.66729E+02  1260.700   149.226  1039.611   797.108   165.017     0.000   191.844     0.000   408.673     2.988     2.966     0.625     3.291     0.035     1.526   216.830     3.410     0.000 .00000E+00 0.000E+00 0.000E+00 0.000E+00
BIGSUB  34        0 2003.14981E+02  1322.700   176.212   963.383   741.013   179.591    75.770   281.541     0.000   421.365     0.984     1.852     0.349     1.878     0.049     0.755   139.424     0.973     0.000 .00000E+00 0.000E+00 0.000E+00 0.000E+00
BIGSUB  35        0 2003.44025E+02  1328.800   156.596   962.507   735.463   179.498    26.248   268.270     0.000   458.390     1.939     2.501     0.471     2.284     0.038     1.061   189.992     1.381     0.000 .00000E+00 0.000E+00 0.000E+00 0.000E+00
BIGSUB  36        0 2003.42915E+02  1263.400   149.745   979.176   751.830   163.212     0.000   187.965     0.000   434.426     3.420     2.765     0.589     3.384     0.032     1.274   246.462     3.534     0.000 .00000E+00 0.000E+00 0.000E+00 0.000E+00
BIGSUB  37        0 2003.90875E+02  1292.800   168.242   975.038   747.382   179.480    14.161   231.931     0.000   424.635     2.302     2.503     0.485     1.468     0.033     1.083   192.642     1.473     0.000 .00000E+00 0.000E+00 0.000E+00 0.000E+00
BIGSUB  38        0 2003.14134E+03  1328.900   145.646   961.825   743.279   179.499    30.925   260.059     0.000   442.859     1.791     2.491     0.442     2.595     0.033     1.063   182.647     1.371     0.000 .00000E+00 0.000E+00 0.000E+00 0.000E+00
BIGSUB  39        0 2003.21721E+00  1324.500   151.483   972.801   739.738   145.843     0.000   202.512     0.000   472.692    10.047     5.477     0.902     2.107     0.062     2.036   270.180     2.087     0.000 .00000E+00 0.000E+00 0.000E+00 0.000E+00
BIGSUB  40        0 2003.31509E+02  1278.200   165.918  1015.633   783.748   179.432    16.855   232.323     0.000   416.014     2.031     2.606     0.470     2.079     0.036     1.100   183.611     1.892     0.000 .00000E+00 0.000E+00 0.000E+00 0.000E+00
BIGSUB  41        0 2003.26520E+02  1328.800   156.616   962.222   729.881   179.498    10.037   246.915     0.000   472.381     2.901     2.940     0.565     2.150     0.037     1.261   225.425     1.654     0.000 .00000E+00 0.000E+00 0.000E+00 0.000E+00
BIGSUB  42        0 2003.33460E+02  1324.500   151.625   972.533   754.654   179.487    34.646   248.541     0.000   417.500     1.556     2.278     0.416     1.522     0.038     0.962   168.789     1.236     0.000 .00000E+00 0.000E+00 0.000E+00 0.000E+00
BIGSUB  43        0 2003.91389E+02  1322.700   176.224   962.993   739.109   179.497    51.164   274.394     0.000   437.507     1.205     2.078     0.378     1.944     0.040     0.881   162.848     1.136     0.000 .00000E+00 0.000E+00 0.000E+00 0.000E+00
BIGSUB  44        0 2003.58006E+02  1278.200   165.927  1015.064   785.433   179.434    34.061   239.059     0.000   403.167     1.520     2.317     0.409     2.104     0.037     0.979   163.932     1.724     0.000 .00000E+00 0.000E+00 0.000E+00 0.000E+00
BIGSUB  45        0 2003.11351E+03  1301.800   163.037   974.316   751.355   179.481    39.875   255.390     0.000   417.368     1.367     2.044     0.379     2.603     0.037     0.870   161.775     1.446     0.000 .00000E+00 0.000E+00 0.000E+00 0.000E+00
BIGSUB  46        0 2003.15709E+01  1291.400   141.753   976.284   767.225   179.179    88.489   253.346     0.000   367.661     0.486     1.319     0.262     3.335     0.069     0.458   113.835     1.400     0.000 .00000E+00 0.000E+00 0.000E+00 0.000E+00
BIGSUB  47        0 2003.53704E+02  1324.500   151.444   972.025   755.866   179.500    51.307   255.224     0.000   405.886     1.036     1.847     0.334     1.421     0.040     0.780   150.400     1.071     0.000 .00000E+00 0.000E+00 0.000E+00 0.000E+00
BIGSUB  48        0 2003.10704E+02  1296.200   163.071   974.005   747.337   179.482    41.231   249.664     0.000   410.938     1.531     2.142     0.410     2.035     0.045     0.884   161.066     1.120     0.000 .00000E+00 0.000E+00 0.000E+00 0.000E+00
BIGSUB  49        0 2003.38162E+02  1302.400   164.414   964.478   743.237   179.500    58.328   257.189     0.000   415.868     1.177     2.037     0.379     2.531     0.042     0.838   158.372     1.092     0.000 .00000E+00 0.000E+00 0.000E+00 0.000E+00
BIGSUB  50        0 2003.11071E+03  1265.200   172.951  1017.034   769.833   143.374     0.000   192.323     0.000   463.379     5.627     3.872     0.703     3.128     0.025     1.680   271.057     3.159     0.000 .00000E+00 0.000E+00 0.000E+00 0.000E+00
BIGSUB  51        0 2003.49295E+02  1281.200   118.053   990.694   643.658   178.498   131.149    66.740     0.000   483.903   112.419    25.528     3.166     0.001     0.004     8.104   416.415     0.352     0.000 .00000E+00 0.000E+00 0.000E+00 0.000E+00
BIGSUB  52        0 2003.69569E+02  1333.800   171.399   961.883   734.745   179.499    28.077   269.821     0.000   460.761     1.894     2.486     0.464     2.335     0.037     1.062   190.801     1.371     0.000 .00000E+00 0.000E+00 0.000E+00 0.000E+00
BIGSUB  53        0 2003.16731E+03  1321.500   162.731   981.531   758.613   179.535    56.353   281.288     0.000   421.432     0.722     1.528     0.275     1.181     0.042     0.641   139.856     1.012     0.000 .00000E+00 0.000E+00 0.000E+00 0.000E+00
BIGSUB  54        0 2003.20861E+03  1265.200   172.974  1017.364   774.707   162.423     0.000   201.871     0.000   446.443     3.176     2.931     0.565     3.223     0.027     1.281   244.572     3.055     0.000 .00000E+00 0.000E+00 0.000E+00 0.000E+00
BIGSUB  55        0 2003.71462E+02  1326.800   146.883   971.590   753.841   179.627    63.447   260.121     0.000   401.393     0.847     1.658     0.306     1.906     0.041     0.708   140.943     0.984     0.000 .00000E+00 0.000E+00 0.000E+00 0.000E+00
BIGSUB  56        0 2003.49678E+02  1292.000   163.843  1014.497   779.876   179.437    16.664   243.562     0.000   430.607     2.301     2.826     0.504     1.581     0.036     1.215   186.965     2.106     0.000 .00000E+00 0.000E+00 0.000E+00 0.000E+00
BIGSUB  57        0 2003.11567E+02  1340.200   159.319   981.335   763.909   179.587    63.024   287.801     0.000   426.668     0.786     1.613     0.319     2.669     0.053     0.649   138.543     1.045     0.000 .00000E+00 0.000E+00 0.000E+00 0.000E+00
BIGSUB  58        0 2003.38020E+02  1302.500   157.460   973.586   748.156   179.485    34.085   246.697     0.000   414.661     1.933     2.368     0.444     1.614     0.038     1.007   167.795     1.293     0.000 .00000E+00 0.000E+00 0.000E+00 0.000E+00
BIGSUB  59        0 2003.49034E+02  1281.200   139.292   990.117   772.048   179.093    21.227   237.861     0.000   423.723     1.808     2.293     0.467     2.433     0.039     1.024   185.756     1.943     0.000 .00000E+00 0.000E+00 0.000E+00 0.000E+00
BIGSUB  60        0 2003.48722E+02  1319.600   138.630   953.434   744.739   180.027   111.844   278.856     0.000   376.369     0.364     0.931     0.180     2.364     0.047     0.376    96.916     0.713     0.000 .00000E+00 0.000E+00 0.000E+00 0.000E+00
BIGSUB  61        0 2003.30276E+01  1295.500   150.471   976.012   763.039   179.122    11.530   219.888     0.000   425.005     2.604     2.624     0.529     1.841     0.048     1.114   205.063     2.329     0.000 .00000E+00 0.000E+00 0.000E+00 0.000E+00
BIGSUB  62        0 2003.14782E+02  1322.600   149.334   962.022   733.166   179.498    22.368   263.905     0.000   456.874     2.245     2.673     0.507     2.187     0.042     1.129   192.862     1.429     0.000 .00000E+00 0.000E+00 0.000E+00 0.000E+00
BIGSUB  63        0 2003.10981E+03  1334.000   157.145   980.751   759.438   179.610    71.162   291.171     0.000   420.119     0.703     1.514     0.276     2.251     0.044     0.635   128.578     0.955     0.000 .00000E+00 0.000E+00 0.000E+00 0.000E+00
BIGSUB  64        0 2003.20063E+02  1346.200   161.494   981.117   762.781   179.498    42.717   278.898     0.000   445.049     1.197     1.903     0.391     2.521     0.048     0.804   165.938     1.182     0.000 .00000E+00 0.000E+00 0.000E+00 0.000E+00
BIGSUB  65        0 2003.43984E+02  1334.800   145.299   971.406   763.513   180.238   112.398   274.595     0.000   370.217     0.316     0.809     0.166     2.841     0.050     0.328    95.027     0.816     0.000 .00000E+00 0.000E+00 0.000E+00 0.000E+00
BIGSUB  66        0 2003.19313E+01  1346.200   161.511   980.957   764.344   179.567    61.137   287.029     0.000   431.972     0.978     1.719     0.347     2.598     0.064     0.623   144.629     1.058     0.000 .00000E+00 0.000E+00 0.000E+00 0.000E+00
BIGSUB  67        0 2003.13333E+02  1345.000   156.248   980.439   765.149   179.507    53.502   281.770     0.000   431.420     1.184     1.914     0.373     1.446     0.048     0.788   149.374     1.063     0.000 .00000E+00 0.000E+00 0.000E+00 0.000E+00
BIGSUB  68        0 2003.63069E+02  1271.100   127.188   977.839   636.095   178.527   159.631    54.064     0.000   456.569    61.143    14.806     1.835     0.001     0.003     4.688   401.589     0.330     0.000 .00000E+00 0.000E+00 0.000E+00 0.000E+00
BIGSUB  69        0 2003.99706E+01  1314.700   159.500   972.990   742.991   179.487    11.052   232.695     0.000   442.448     3.150     2.889     0.551     1.445     0.040     1.218   209.707     1.552     0.000 .00000E+00 0.000E+00 0.000E+00 0.000E+00
BIGSUB  70        0 2003.67884E+02  1314.600   118.291  1042.297   637.976   158.340    29.661    58.247     0.000   656.170   963.670    12.831     1.602     0.002     0.001     3.277   597.754     0.474     0.000 .00000E+00 0.000E+00 0.000E+00 0.000E+00
BIGSUB  71        0 2003.67294E+02  1273.800   136.939  1030.927   672.550   178.306    88.523    37.204     0.000   517.609    93.214    12.936     1.607     0.001     0.001     4.152   479.897     0.393     0.000 .00000E+00 0.000E+00 0.000E+00 0.000E+00
BIGSUB  72        0 2003.10533E+03  1258.400   132.360  1030.137   664.247   178.312   116.249    43.958     0.000   481.690    82.329    14.545     1.803     0.001     0.002     4.649   437.062     0.376     0.000 .00000E+00 0.000E+00 0.000E+00 0.000E+00
BIGSUB  73        0 2003.27515E+03  1277.900   150.982  1039.690   789.422   157.292     0.000   199.876     0.000   431.311     2.236     2.513     0.537     3.268     0.033     1.286   231.435     3.442     0.000 .00000E+00 0.000E+00 0.000E+00 0.000E+00
BIGSUB  74        0 2003.13556E+03  1253.200   153.872   980.125   758.896   179.107     2.062   207.726     0.000   422.853     2.208     2.298     0.529     3.106     0.035     1.079   215.122     3.084     0.000 .00000E+00 0.000E+00 0.000E+00 0.000E+00
BIGSUB  75        0 2003.12236E+03  1258.400   168.768  1016.924   769.583   163.971     0.000   201.259     0.000   443.864     3.253     2.907     0.569     3.746     0.028     1.280   242.605     3.193     0.000 .00000E+00 0.000E+00 0.000E+00 0.000E+00
BIGSUB  76        0 2003.56379E+02  1275.100   169.434  1015.903   783.937   173.911     0.000   199.783     0.000   427.736     3.048     2.874     0.535     2.856     0.029     1.221   227.953     2.498     0.000 .00000E+00 0.000E+00 0.000E+00 0.000E+00
BIGSUB  77        0 2003.77624E+02  1292.400   173.049  1015.964   782.692   179.482    66.360   259.830     0.000   395.979     0.557     1.214     0.231     2.332     0.045     0.521   135.790     1.739     0.000 .00000E+00 0.000E+00 0.000E+00 0.000E+00
BIGSUB  78        0 2003.55921E+02  1268.500   167.061  1016.042   785.701   179.430    17.698   221.873     0.000   405.384     2.409     2.633     0.490     3.701     0.033     1.131   183.424     2.073     0.000 .00000E+00 0.000E+00 0.000E+00 0.000E+00
BIGSUB  79        0 2003.81876E+02  1262.400   119.959   979.120   638.256   178.519    96.202    60.289     0.000   514.175   140.978    15.653     1.947     0.001     0.002     5.031   453.343     0.368     0.000 .00000E+00 0.000E+00 0.000E+00 0.000E+00
BIGSUB  80        0 2003.61560E+02  1263.400   149.732   978.782   764.018   179.111    29.255   220.543     0.000   394.720     1.216     1.854     0.382     2.855     0.039     0.839   174.024     2.602     0.000 .00000E+00 0.000E+00 0.000E+00 0.000E+00
BIGSUB  81        0 2003.61322E+02  1273.800   150.942   978.313   764.534   179.111    29.262   227.162     0.000   404.133     1.154     1.877     0.370     2.577     0.040     0.838   176.819     2.532     0.000 .00000E+00 0.000E+00 0.000E+00 0.000E+00
BIGSUB  82        0 2003.14168E+03  1283.600   170.081  1015.760   789.573   179.431    17.166   231.558     0.000   415.452     1.681     2.314     0.418     1.964     0.033     0.984   183.808     1.850     0.000 .00000E+00 0.000E+00 0.000E+00 0.000E+00
BIGSUB  83        0 2003.13441E+03  1273.000   154.992   978.419   767.398   179.113    44.385   225.218     0.000   389.372     1.012     1.755     0.349     2.697     0.039     0.794   163.918     2.385     0.000 .00000E+00 0.000E+00 0.000E+00 0.000E+00
BIGSUB  84        0 2003.18508E+03  1288.700   163.400  1015.338   784.085   179.435    24.008   242.894     0.000   423.124     1.657     2.432     0.425     1.730     0.033     1.040   180.106     1.763     0.000 .00000E+00 0.000E+00 0.000E+00 0.000E+00
BIGSUB  85        0 2003.88601E+02  1299.800   164.485  1014.711   780.745   179.437    22.779   254.456     0.000   432.912     1.552     2.350     0.419     1.540     0.037     0.997   178.340     2.158     0.000 .00000E+00 0.000E+00 0.000E+00 0.000E+00
BIGSUB  86        0 2003.64542E+02  1284.300   153.489   977.542   766.816   179.116    44.224   233.447     0.000   396.044     1.078     1.943     0.373     2.269     0.042     0.862   162.362     2.440     0.000 .00000E+00 0.000E+00 0.000E+00 0.000E+00
BIGSUB  87        0 2003.63476E+02  1284.300   153.502   977.265   766.615   179.117    44.324   233.584     0.000   396.237     1.209     2.047     0.396     2.270     0.041     0.912   162.416     2.439     0.000 .00000E+00 0.000E+00 0.000E+00 0.000E+00
BIGSUB  88        0 2003.75994E+02  1299.800   164.486  1014.220   782.223   179.439    43.407   262.036     0.000   418.461     1.086     1.968     0.350     1.523     0.040     0.831   156.195     1.938     0.000 .00000E+00 0.000E+00 0.000E+00 0.000E+00
BIGSUB  89        0 2003.46680E+02  1289.300   144.195   976.871   764.048   179.117    40.019   236.824     0.000   397.192     0.996     1.700     0.350     2.341     0.044     0.760   160.155     2.175     0.000 .00000E+00 0.000E+00 0.000E+00 0.000E+00
BIGSUB  90        0 2003.85958E+02  1276.500   138.636   991.352   772.826   179.083    19.641   228.327     0.000   417.509     1.350     1.836     0.386     2.072     0.039     0.849   189.083     2.130     0.000 .00000E+00 0.000E+00 0.000E+00 0.000E+00
BIGSUB  91        0 2003.47573E+02  1286.600   142.098   990.705   775.108   179.091    56.657   246.408     0.000   396.025     0.678     1.305     0.268     2.428     0.047     0.579   149.314     2.002     0.000 .00000E+00 0.000E+00 0.000E+00 0.000E+00
BIGSUB  92        0 2003.10723E+03  1305.500   160.751  1013.590   784.033   179.563    68.780   272.118     0.000   402.614     0.735     1.535     0.281     1.407     0.043     0.671   130.131     1.503     0.000 .00000E+00 0.000E+00 0.000E+00 0.000E+00
BIGSUB  93        0 2003.54873E+02  1293.100   143.918   976.497   766.603   179.131    64.413   249.633     0.000   387.110     0.822     1.561     0.313     1.390     0.046     0.692   137.131     1.717     0.000 .00000E+00 0.000E+00 0.000E+00 0.000E+00
BIGSUB  94        0 2003.11684E+03  1312.700   162.716  1013.626   783.761   179.568    71.299   278.768     0.000   407.655     0.707     1.545     0.275     1.764     0.043     0.657   128.507     1.247     0.000 .00000E+00 0.000E+00 0.000E+00 0.000E+00
BIGSUB  95        0 2003.69423E+02  1286.600   142.123   990.172   774.491   179.090    52.703   245.592     0.000   399.178     0.769     1.397     0.286     2.436     0.045     0.628   153.305     2.048     0.000 .00000E+00 0.000E+00 0.000E+00 0.000E+00
BIGSUB  96        0 2003.93940E+02  1280.900   150.777   990.561   774.932   179.094    21.032   235.470     0.000   422.994     1.756     2.239     0.477     2.681     0.040     1.044   187.422     2.122     0.000 .00000E+00 0.000E+00 0.000E+00 0.000E+00
BIGSUB  97        0 2003.67883E+02  1298.900   147.058   976.635   769.739   179.320   137.028   262.824     0.000   341.812     0.219     0.603     0.131     3.609     0.054     0.252    78.241     1.137     0.000 .00000E+00 0.000E+00 0.000E+00 0.000E+00
BIGSUB  98        0 2003.72823E+02  1299.600   165.287   964.461   744.217   179.490    42.484   251.880     0.000   422.135     1.443     2.132     0.397     2.510     0.038     0.892   170.035     1.166     0.000 .00000E+00 0.000E+00 0.000E+00 0.000E+00
BIGSUB  99        0 2003.10338E+03  1298.900   147.062   976.089   768.384   179.215   107.309   258.732     0.000   362.939     0.377     0.952     0.186     1.840     0.049     0.416   103.625     1.367     0.000 .00000E+00 0.000E+00 0.000E+00 0.000E+00
BIGSUB 100        0 2003.12413E+03  1321.500   162.496   981.935   760.586   180.008   133.314   292.588     0.000   361.033     0.184     0.494     0.110     1.003     0.052     0.198    67.738     0.490     0.000 .00000E+00 0.000E+00 0.000E+00 0.000E+00
BIGSUB 101        0 2003.85573E+02  1306.900   166.400   964.357   743.803   179.846   117.833   274.068     0.000   381.199     0.471     1.099     0.211     2.550     0.047     0.453   106.498     0.732     0.000 .00000E+00 0.000E+00 0.000E+00 0.000E+00
BIGSUB 102        0 2003.12177E+03  1299.600   165.292   964.392   744.173   179.490    42.506   251.170     0.000   421.434     1.234     1.989     0.364     2.506     0.037     0.834   170.045     1.168     0.000 .00000E+00 0.000E+00 0.000E+00 0.000E+00
BIGSUB 103        0 2003.73049E+02  1285.300   168.906   975.445   745.232   170.257     0.000   201.526     0.000   438.168     6.176     4.147     0.747     1.891     0.027     1.840   236.642     1.709     0.000 .00000E+00 0.000E+00 0.000E+00 0.000E+00
BIGSUB 104        0 2003.66185E+02  1336.200   167.316   981.876   757.434   179.496    33.551   283.346     0.000   444.331     1.144     1.901     0.372     1.784     0.043     0.812   160.821     1.162     0.000 .00000E+00 0.000E+00 0.000E+00 0.000E+00
BIGSUB 105        0 2003.63992E+02  1296.600   166.511   974.996   750.211   179.481    19.727   235.976     0.000   419.303     1.753     2.235     0.427     1.316     0.035     0.951   183.233     1.376     0.000 .00000E+00 0.000E+00 0.000E+00 0.000E+00
BIGSUB 106        0 2003.65548E+02  1330.100   168.661   981.993   757.869   179.496    28.028   272.343     0.000   440.469     1.272     2.058     0.389     1.689     0.040     0.869   167.993     1.505     0.000 .00000E+00 0.000E+00 0.000E+00 0.000E+00
BIGSUB 107        0 2003.15707E+03  1308.700   156.309   963.603   745.725   179.655    72.819   268.614     0.000   406.343     0.809     1.606     0.289     2.173     0.040     0.677   137.345     0.987     0.000 .00000E+00 0.000E+00 0.000E+00 0.000E+00
BIGSUB 108        0 2003.12295E+03  1285.300   168.933   974.747   755.327   179.480    28.199   235.222     0.000   403.911     1.689     2.196     0.415     1.807     0.034     0.953   168.554     1.216     0.000 .00000E+00 0.000E+00 0.000E+00 0.000E+00
BIGSUB 109        0 2003.72640E+02  1301.800   163.107   974.470   740.924   176.478     0.000   217.248     0.000   454.741     4.092     3.441     0.626     2.295     0.029     1.504   237.493     2.093     0.000 .00000E+00 0.000E+00 0.000E+00 0.000E+00
BIGSUB 110        0 2003.64798E+02  1343.800   169.822   981.435   758.951   179.616    81.247   299.923     0.000   427.014     0.598     1.294     0.255     2.503     0.050     0.535   126.663     0.917     0.000 .00000E+00 0.000E+00 0.000E+00 0.000E+00
BIGSUB 111        0 2003.69187E+02  1313.400   156.675   963.216   739.283   179.783    94.309   280.818     0.000   402.977     0.573     1.322     0.244     2.226     0.047     0.553   121.656     0.898     0.000 .00000E+00 0.000E+00 0.000E+00 0.000E+00
BIGSUB 112        0 2003.58161E+02  1336.200   167.425   981.497   760.802   179.550    60.154   298.669     0.000   434.457     0.814     1.616     0.312     1.712     0.048     0.678   135.478     0.981     0.000 .00000E+00 0.000E+00 0.000E+00 0.000E+00
BIGSUB 113        0 2003.47674E+02  1326.500   175.453   963.224   743.965   179.535    67.118   283.616     0.000   428.540     0.983     1.885     0.343     2.769     0.044     0.789   144.570     1.085     0.000 .00000E+00 0.000E+00 0.000E+00 0.000E+00
BIGSUB 114        0 2003.46343E+02  1354.800   166.848   980.906   762.995   179.617    73.330   290.286     0.000   429.476     0.620     1.322     0.269     2.342     0.051     0.541   138.808     1.011     0.000 .00000E+00 0.000E+00 0.000E+00 0.000E+00
BIGSUB 115        0 2003.46570E+02  1313.400   156.786   962.790   738.258   179.627    72.577   277.605     0.000   418.324     0.871     1.776     0.322     2.341     0.045     0.745   140.336     1.049     0.000 .00000E+00 0.000E+00 0.000E+00 0.000E+00
BIGSUB 116        0 2003.10961E+03  1291.500   165.640   973.848   741.421   179.482    10.558   221.850     0.000   430.776     3.027     2.860     0.537     1.912     0.031     1.256   208.883     1.479     0.000 .00000E+00 0.000E+00 0.000E+00 0.000E+00
BIGSUB 117        0 2003.66191E+02  1308.100   154.527   973.558   746.031   179.485    41.257   256.962     0.000   415.448     1.471     2.175     0.399     1.722     0.038     0.919   158.277     1.095     0.000 .00000E+00 0.000E+00 0.000E+00 0.000E+00
BIGSUB 118        0 2003.47181E+02  1352.800   157.943   979.875   768.510   179.615    70.413   287.623     0.000   424.435     0.704     1.444     0.288     1.430     0.050     0.612   136.445     0.975     0.000 .00000E+00 0.000E+00 0.000E+00 0.000E+00
BIGSUB 119        0 2003.79273E+02  1318.100   149.596   962.613   742.307   179.498    33.855   259.611     0.000   437.334     1.623     2.301     0.419     2.191     0.036     0.977   177.552     1.283     0.000 .00000E+00 0.000E+00 0.000E+00 0.000E+00
BIGSUB 120        0 2003.51977E+02  1345.000   156.250   980.125   766.143   179.639    74.606   287.472     0.000   417.559     0.700     1.451     0.279     1.359     0.047     0.606   129.695     0.920     0.000 .00000E+00 0.000E+00 0.000E+00 0.000E+00
BIGSUB 121        0 2003.69059E+02  1333.800   171.291   962.447   739.293   179.671    82.824   288.822     0.000   423.588     0.865     1.695     0.312     2.192     0.044     0.714   134.327     1.010     0.000 .00000E+00 0.000E+00 0.000E+00 0.000E+00
BIGSUB 122        0 2003.13184E+03  1359.500   155.973   980.360   765.554   179.817    99.015   294.873     0.000   410.335     0.455     1.062     0.212     2.821     0.050     0.447   114.939     0.893     0.000 .00000E+00 0.000E+00 0.000E+00 0.000E+00
BIGSUB 123        0 2003.47215E+02  1308.700   156.371   962.843   746.023   179.898   100.610   273.742     0.000   388.674     0.528     1.213     0.230     2.164     0.047     0.497   114.396     0.835     0.000 .00000E+00 0.000E+00 0.000E+00 0.000E+00
BIGSUB 124        0 2003.46326E+02  1299.500   173.253   973.142   724.774   145.695     0.000   199.694     0.000   483.074    12.422     6.041     1.044     2.066     0.027     2.724   283.380     2.026     0.000 .00000E+00 0.000E+00 0.000E+00 0.000E+00
BIGSUB 125        0 2003.99109E+02  1338.700   170.550   962.205   747.611   179.696    86.489   292.213     0.000   419.943     0.615     1.330     0.251     2.385     0.046     0.557   127.270     0.973     0.000 .00000E+00 0.000E+00 0.000E+00 0.000E+00
BIGSUB 126        0 2003.60294E+02  1314.700   159.475   973.386   746.666   179.486    21.007   244.254     0.000   432.999     2.003     2.515     0.467     1.384     0.035     1.077   188.646     1.385     0.000 .00000E+00 0.000E+00 0.000E+00 0.000E+00
BIGSUB 127        0 2003.95675E+02  1338.100   147.837   961.761   745.855   179.498    47.930   277.948     0.000   439.784     1.415     2.245     0.412     2.801     0.039     0.964   161.591     1.280     0.000 .00000E+00 0.000E+00 0.000E+00 0.000E+00
BIGSUB 128        0 2003.92288E+02  1317.400   150.983   972.759   740.823   179.485     2.844   218.825     0.000   444.331     3.708     3.303     0.597     2.326     0.029     1.458   225.499     1.643     0.000 .00000E+00 0.000E+00 0.000E+00 0.000E+00
BIGSUB 129        0 2003.10380E+03  1310.900   154.482   972.767   726.303   129.602     0.000   199.321     0.000   493.937    12.842     6.045     1.040     2.270     0.024     2.708   294.617     2.156     0.000 .00000E+00 0.000E+00 0.000E+00 0.000E+00
BIGSUB 130        0 2003.74558E+02  1333.000   145.105   961.284   746.103   179.499    49.177   277.675     0.000   434.159     1.089     1.967     0.354     2.594     0.040     0.838   156.233     1.207     0.000 .00000E+00 0.000E+00 0.000E+00 0.000E+00
BIGSUB 131        0 2003.15440E+03  1349.800   151.374   961.450   747.760   179.836   110.032   301.233     0.000   410.930     0.423     0.999     0.194     2.549     0.048     0.419   109.105     0.824     0.000 .00000E+00 0.000E+00 0.000E+00 0.000E+00
BIGSUB 132        0 2003.10758E+03  1317.400   151.003   972.290   742.692   179.487    11.335   228.781     0.000   435.798     2.498     2.700     0.494     2.390     0.031     1.175   206.970     1.500     0.000 .00000E+00 0.000E+00 0.000E+00 0.000E+00
BIGSUB 133        0 2003.73436E+02  1328.900   145.619   961.135   749.300   179.986   105.366   283.125     0.000   392.096     0.473     1.130     0.209     2.445     0.046     0.472   108.411     0.878     0.000 .00000E+00 0.000E+00 0.000E+00 0.000E+00
BIGSUB 134        0 2003.21515E+03  1350.600   152.440   960.960   756.009   179.772    89.755   288.624     0.000   411.673     0.497     1.085     0.208     1.707     0.044     0.463   122.572     0.970     0.000 .00000E+00 0.000E+00 0.000E+00 0.000E+00
BIGSUB 135        0 2003.45757E+02  1318.100   151.764   971.672   745.650   179.489    21.204   235.204     0.000   431.031     1.569     2.192     0.420     2.673     0.037     0.943   195.727     1.450     0.000 .00000E+00 0.000E+00 0.000E+00 0.000E+00
BIGSUB 136        0 2003.92515E+02  1340.100   145.655   960.392   757.659   180.085   104.563   287.613     0.000   395.255     0.433     1.020     0.198     2.819     0.047     0.428   107.089     0.928     0.000 .00000E+00 0.000E+00 0.000E+00 0.000E+00
BIGSUB 137        0 2003.13378E+03  1318.100   151.821   971.162   748.038   179.491    37.330   245.443     0.000   419.416     1.261     1.962     0.369     2.795     0.036     0.847   173.786     1.309     0.000 .00000E+00 0.000E+00 0.000E+00 0.000E+00
BIGSUB 138        0 2003.71124E+02  1302.800   139.788   953.195   744.617   179.843    78.324   260.561     0.000   383.410     0.534     1.216     0.223     1.819     0.042     0.508   122.439     0.892     0.000 .00000E+00 0.000E+00 0.000E+00 0.000E+00
BIGSUB 139        0 2003.91214E+02  1325.600   138.625   952.997   750.629   179.808    80.865   271.498     0.000   392.105     0.559     1.262     0.231     3.270     0.042     0.532   120.182     1.050     0.000 .00000E+00 0.000E+00 0.000E+00 0.000E+00
BIGSUB   1        0 2004.39329E+02  1242.000   121.383  1058.198   749.667    83.709     0.000   171.040     0.000   496.993    12.247     8.230     1.518     4.641     0.025     2.123   325.953     5.616     0.000 .00000E+00 0.000E+00 0.000E+00 0.000E+00
BIGSUB   2        0 2004.13580E+03  1201.100   117.480  1057.198   738.713    78.703     0.000   156.727     0.000   473.725     8.355     5.059     0.962     4.321     0.021     1.636   316.998     5.532     0.000 .00000E+00 0.000E+00 0.000E+00 0.000E+00
BIGSUB   3        0 2004.14611E+03  1157.700    93.343  1056.558   593.100   181.073    38.354    28.573     0.000   539.945   117.267     8.526     1.055     0.000     0.001     2.758   511.372     0.245     0.000 .00000E+00 0.000E+00 0.000E+00 0.000E+00
BIGSUB   4        0 2004.40478E+02  1126.600    97.906  1048.676   803.886    96.032    31.906   188.842     0.000   379.826     1.097     2.054     0.430     3.140     0.036     0.910   190.984     3.614     0.000 .00000E+00 0.000E+00 0.000E+00 0.000E+00
BIGSUB   5        0 2004.35903E+01  1126.600    97.910  1048.463   796.446    87.804    13.613   183.396     0.000   398.694     2.189     2.896     0.612     3.383     0.041     1.213   215.298     3.968     0.000 .00000E+00 0.000E+00 0.000E+00 0.000E+00
BIGSUB   6        0 2004.35801E+01  1126.600    93.788  1048.212   840.894   124.312    95.447    33.439     0.000   265.774     0.107     0.278     0.035     0.005     0.008     0.086   232.335     0.211     0.000 .00000E+00 0.000E+00 0.000E+00 0.000E+00
BIGSUB   7        0 2004.81622E+02  1105.900   147.306   997.447   755.537    77.154    13.048   164.271     0.000   415.124     2.510     3.030     0.715     3.015     0.033     1.373   250.853     4.090     0.000 .00000E+00 0.000E+00 0.000E+00 0.000E+00
BIGSUB   8        0 2004.37902E+02  1117.900   148.148   996.985   772.804    97.086    56.203   178.498     0.000   368.349     0.780     1.556     0.345     2.790     0.040     0.719   189.851     3.007     0.000 .00000E+00 0.000E+00 0.000E+00 0.000E+00
BIGSUB   9        0 2004.50283E+02  1129.400   129.658   996.882   571.348   205.156    36.406    32.804     0.000   534.246   141.756     8.050     0.997     0.000     0.001     2.607   501.442     0.243     0.000 .00000E+00 0.000E+00 0.000E+00 0.000E+00
BIGSUB  10        0 2004.47997E+02  1129.400   129.672   996.118   583.384   205.222    78.203    36.017     0.000   475.114    85.919     8.119     1.005     0.000     0.001     2.609   439.096     0.235     0.000 .00000E+00 0.000E+00 0.000E+00 0.000E+00
BIGSUB  11        0 2004.53852E+02  1128.300   119.398   995.747   581.844   205.713    60.810    40.044     0.000   499.426    93.557     8.425     1.043     0.000     0.001     2.711   459.382     0.232     0.000 .00000E+00 0.000E+00 0.000E+00 0.000E+00
BIGSUB  12        0 2004.25271E+01  1128.300   119.403   995.438   591.647   205.718   110.471    44.855     0.000   435.009    77.863     9.863     1.219     0.000     0.002     3.156   390.155     0.212     0.000 .00000E+00 0.000E+00 0.000E+00 0.000E+00
BIGSUB  13        0 2004.22422E+01  1137.400   117.000   995.348   597.498   206.037   184.556    44.860     0.000   348.202    23.207     8.096     1.001     0.000     0.003     2.539   303.341     0.170     0.000 .00000E+00 0.000E+00 0.000E+00 0.000E+00
BIGSUB  14        0 2004.13292E+03  1140.600   111.066   994.383   598.638   206.713    83.642    40.406     0.000   464.917    56.275     9.405     1.163     0.000     0.002     3.006   424.511     0.219     0.000 .00000E+00 0.000E+00 0.000E+00 0.000E+00
BIGSUB  15        0 2004.10831E+02  1136.200   122.062   993.517   787.905   117.938    49.648   184.205     0.000   361.547     0.664     1.348     0.331     4.937     0.048     0.597   177.044     2.220     0.000 .00000E+00 0.000E+00 0.000E+00 0.000E+00
BIGSUB  16        0 2004.49593E+02  1118.400   108.463   976.790   745.804   132.699    66.836   203.253     0.000   344.937     0.411     1.013     0.214     2.929     0.045     0.414   141.271     1.643     0.000 .00000E+00 0.000E+00 0.000E+00 0.000E+00
BIGSUB  17        0 2004.14826E+03  1150.800   116.704   995.049   603.349   207.083   106.959    41.892     0.000   441.761    46.811     8.518     1.054     0.000     0.002     2.716   399.246     0.213     0.000 .00000E+00 0.000E+00 0.000E+00 0.000E+00
BIGSUB  18        0 2004.67887E+02  1115.200   116.699   976.238   742.439   133.219    59.972   194.013     0.000   356.433     0.543     1.178     0.269     3.809     0.045     0.491   162.050     1.952     0.000 .00000E+00 0.000E+00 0.000E+00 0.000E+00
BIGSUB  19        0 2004.18573E+00  1150.800   127.767   994.716   779.773   105.787    23.691   192.231     0.000   417.184     1.834     2.963     0.621     5.245     0.071     1.088   224.819     2.915     0.000 .00000E+00 0.000E+00 0.000E+00 0.000E+00
BIGSUB  20        0 2004.14568E+01  1150.800   127.769   994.615   784.251   126.024    60.322   195.434     0.000   359.628     0.592     1.335     0.306     4.938     0.062     0.532   163.832     2.031     0.000 .00000E+00 0.000E+00 0.000E+00 0.000E+00
BIGSUB  21        0 2004.96526E+02  1127.900   112.090   994.630   593.330   205.880    76.771    40.222     0.000   470.539    78.094     9.244     1.145     0.000     0.001     2.965   429.870     0.220     0.000 .00000E+00 0.000E+00 0.000E+00 0.000E+00
BIGSUB  22        0 2004.33778E+02  1115.200   116.709   975.753   739.229   125.676    38.467   192.944     0.000   396.973     1.121     1.878     0.437     3.990     0.043     0.811   203.789     2.404     0.000 .00000E+00 0.000E+00 0.000E+00 0.000E+00
BIGSUB  23        0 2004.67360E+01  1164.800   125.630  1004.126   793.458   136.445    87.070   191.102     0.000   311.648     0.196     0.615     0.155     4.899     0.059     0.241   120.023     1.454     0.000 .00000E+00 0.000E+00 0.000E+00 0.000E+00
BIGSUB  24        0 2004.61572E+02  1111.500   127.187   993.755   781.153   109.345    51.816   179.949     0.000   345.860     0.732     1.529     0.339     4.548     0.037     0.696   165.597     2.055     0.000 .00000E+00 0.000E+00 0.000E+00 0.000E+00
BIGSUB  25        0 2004.70143E+02  1120.200   107.604   975.110   739.263   124.219    27.942   191.882     0.000   411.761     1.410     2.304     0.549     4.434     0.041     0.988   219.703     2.813     0.000 .00000E+00 0.000E+00 0.000E+00 0.000E+00
BIGSUB  26        0 2004.89333E+02  1174.600   129.244  1003.756   798.399   120.704    41.442   182.400     0.000   384.325     1.151     1.975     0.473     5.385     0.039     0.954   201.674     2.371     0.000 .00000E+00 0.000E+00 0.000E+00 0.000E+00
BIGSUB  27        0 2004.55870E+01  1115.500    99.973   974.616   583.733   202.700    56.854    36.279     0.000   496.213   153.616     8.450     1.048     0.000     0.001     2.746   459.587     0.210     0.000 .00000E+00 0.000E+00 0.000E+00 0.000E+00
BIGSUB  28        0 2004.16286E+02  1117.900   148.146   997.069   762.000    79.272    13.239   165.376     0.000   414.910     2.572     3.038     0.682     3.039     0.036     1.371   249.458     4.057     0.000 .00000E+00 0.000E+00 0.000E+00 0.000E+00
BIGSUB  29        0 2004.84670E+02  1107.600   118.298   976.943   747.536   127.260    57.809   187.729     0.000   351.982     0.665     1.443     0.297     2.739     0.038     0.601   163.893     1.925     0.000 .00000E+00 0.000E+00 0.000E+00 0.000E+00
BIGSUB  30        0 2004.20923E+02  1105.400   112.013   976.395   745.444   134.344    69.990   193.020     0.000   328.319     0.332     0.841     0.191     3.110     0.048     0.337   134.865     1.675     0.000 .00000E+00 0.000E+00 0.000E+00 0.000E+00
BIGSUB  31        0 2004.77724E+02  1174.600   129.254  1003.107   795.130   112.418    24.800   179.515     0.000   406.625     1.859     2.633     0.629     5.335     0.037     1.225   226.969     2.747     0.000 .00000E+00 0.000E+00 0.000E+00 0.000E+00
BIGSUB  32        0 2004.44429E+02  1101.800   131.941   996.765   753.927    72.601     3.173   171.745     0.000   420.966     2.927     3.299     0.810     3.705     0.035     1.472   249.203     3.793     0.000 .00000E+00 0.000E+00 0.000E+00 0.000E+00
BIGSUB  33        0 2004.66729E+02  1123.700   114.159  1055.399   793.072    91.115    18.279   181.631     0.000   388.785     2.049     3.047     0.663     5.220     0.033     1.362   207.050     3.609     0.000 .00000E+00 0.000E+00 0.000E+00 0.000E+00
BIGSUB  34        0 2004.14981E+02  1105.400   112.018   976.201   744.685   132.036    61.944   193.624     0.000   343.435     0.473     1.053     0.236     3.165     0.047     0.425   149.426     1.846     0.000 .00000E+00 0.000E+00 0.000E+00 0.000E+00
BIGSUB  35        0 2004.44025E+02  1110.800   113.542   975.309   734.437   124.689    38.426   191.339     0.000   396.561     1.070     1.858     0.429     4.272     0.041     0.815   204.982     2.521     0.000 .00000E+00 0.000E+00 0.000E+00 0.000E+00
BIGSUB  36        0 2004.42915E+02  1101.800   131.944   996.582   762.281    77.910    15.597   183.242     0.000   414.417     2.565     3.114     0.777     3.659     0.038     1.444   231.085     3.587     0.000 .00000E+00 0.000E+00 0.000E+00 0.000E+00
BIGSUB  37        0 2004.90875E+02  1167.000   119.493   988.431   768.207   128.037    37.710   193.835     0.000   406.967     1.465     2.302     0.528     3.505     0.041     1.040   212.900     2.404     0.000 .00000E+00 0.000E+00 0.000E+00 0.000E+00
BIGSUB  38        0 2004.14134E+03  1124.900   112.639   974.613   746.935   128.636    41.524   183.409     0.000   384.371     0.907     1.717     0.383     4.323     0.039     0.740   200.703     2.710     0.000 .00000E+00 0.000E+00 0.000E+00 0.000E+00
BIGSUB  39        0 2004.21721E+00  1133.900   109.287   986.155   748.204   107.379     0.087   168.139     0.000   428.768     4.051     3.741     0.752     4.653     0.060     1.288   260.629     3.451     0.000 .00000E+00 0.000E+00 0.000E+00 0.000E+00
BIGSUB  40        0 2004.31509E+02  1100.100   133.268  1029.910   780.343    85.050    38.480   190.227     0.000   376.160     1.001     1.851     0.412     3.592     0.039     0.768   185.698     1.731     0.000 .00000E+00 0.000E+00 0.000E+00 0.000E+00
BIGSUB  41        0 2004.26520E+02  1110.800   113.550   975.018   731.498   119.779    27.393   190.120     0.000   418.831     1.731     2.480     0.583     4.269     0.041     1.096   228.539     2.843     0.000 .00000E+00 0.000E+00 0.000E+00 0.000E+00
BIGSUB  42        0 2004.33460E+02  1133.900   109.294   985.882   757.873   130.118    46.654   183.768     0.000   374.841     0.876     1.728     0.373     4.471     0.042     0.734   190.780     2.555     0.000 .00000E+00 0.000E+00 0.000E+00 0.000E+00
BIGSUB  43        0 2004.91389E+02  1105.400   112.029   975.804   742.487   128.124    49.256   189.528     0.000   363.825     0.564     1.209     0.265     3.241     0.041     0.511   173.989     2.132     0.000 .00000E+00 0.000E+00 0.000E+00 0.000E+00
BIGSUB  44        0 2004.58006E+02  1100.100   133.277  1029.332   782.921    89.025    47.587   190.797     0.000   359.280     0.730     1.488     0.326     3.562     0.039     0.618   168.193     1.553     0.000 .00000E+00 0.000E+00 0.000E+00 0.000E+00
BIGSUB  45        0 2004.11351E+03  1158.100   109.011   987.697   769.437   135.748    48.759   194.113     0.000   375.141     0.882     1.713     0.367     4.967     0.040     0.750   180.726     2.162     0.000 .00000E+00 0.000E+00 0.000E+00 0.000E+00
BIGSUB  46        0 2004.15709E+01  1136.200   122.061   993.632   788.997   129.741    80.286   185.607     0.000   311.442     0.234     0.785     0.180     4.953     0.061     0.248   125.354     1.588     0.000 .00000E+00 0.000E+00 0.000E+00 0.000E+00
BIGSUB  47        0 2004.53704E+02  1133.900   109.305   985.365   758.683   133.298    56.444   184.334     0.000   357.420     0.568     1.259     0.270     4.412     0.042     0.527   172.734     2.325     0.000 .00000E+00 0.000E+00 0.000E+00 0.000E+00
BIGSUB  48        0 2004.10704E+02  1168.300   105.875   987.380   773.400   135.290    50.188   198.131     0.000   380.749     1.014     1.807     0.388     4.950     0.046     0.757   182.305     2.093     0.000 .00000E+00 0.000E+00 0.000E+00 0.000E+00
BIGSUB  49        0 2004.38162E+02  1130.300   120.175   977.319   750.694   129.612    57.078   196.980     0.000   368.873     0.673     1.423     0.307     3.843     0.043     0.598   171.542     1.876     0.000 .00000E+00 0.000E+00 0.000E+00 0.000E+00
BIGSUB  50        0 2004.11071E+03  1110.100   133.839  1031.332   748.262    74.908     6.625   175.036     0.000   423.132     2.873     3.277     0.712     2.951     0.030     1.370   248.058     2.744     0.000 .00000E+00 0.000E+00 0.000E+00 0.000E+00
BIGSUB  51        0 2004.49295E+02  1187.800   119.101  1003.683   623.441   204.327    97.342    32.686     0.000   459.901    51.423     6.766     0.837     0.000     0.001     2.169   426.644     0.229     0.000 .00000E+00 0.000E+00 0.000E+00 0.000E+00
BIGSUB  52        0 2004.69569E+02  1100.900   116.160   974.672   730.625   123.830    39.774   182.347     0.000   388.669     0.894     1.623     0.370     4.170     0.040     0.716   206.075     2.631     0.000 .00000E+00 0.000E+00 0.000E+00 0.000E+00
BIGSUB  53        0 2004.16731E+03  1094.600   113.007   995.014   761.174   109.105    56.954   181.941     0.000   333.937     0.412     1.014     0.205     2.586     0.037     0.417   151.639     1.765     0.000 .00000E+00 0.000E+00 0.000E+00 0.000E+00
BIGSUB  54        0 2004.20861E+03  1110.100   133.834  1031.667   756.252    78.582    18.100   183.582     0.000   414.941     2.004     2.792     0.604     2.969     0.031     1.193   231.256     2.564     0.000 .00000E+00 0.000E+00 0.000E+00 0.000E+00
BIGSUB  55        0 2004.71462E+02  1132.800    91.882   984.922   760.800   138.265    53.848   199.244     0.000   353.952     0.630     1.450     0.293     4.179     0.043     0.610   154.368     2.175     0.000 .00000E+00 0.000E+00 0.000E+00 0.000E+00
BIGSUB  56        0 2004.49678E+02  1098.900   127.626  1028.757   789.016    85.990    34.943   182.904     0.000   367.884     1.153     1.987     0.419     3.443     0.036     0.859   184.764     1.835     0.000 .00000E+00 0.000E+00 0.000E+00 0.000E+00
BIGSUB  57        0 2004.11567E+02  1100.600   107.943   994.811   760.919   119.730    57.207   186.009     0.000   334.505     0.517     1.235     0.267     2.559     0.044     0.484   148.135     1.865     0.000 .00000E+00 0.000E+00 0.000E+00 0.000E+00
BIGSUB  58        0 2004.38020E+02  1160.200   103.111   986.953   769.277   133.596    42.529   203.153     0.000   391.081     1.298     2.141     0.453     5.438     0.041     0.925   187.660     2.413     0.000 .00000E+00 0.000E+00 0.000E+00 0.000E+00
BIGSUB  59        0 2004.49034E+02  1187.800   131.506  1003.101   798.967   128.463    46.374   183.769     0.000   383.536     1.097     1.875     0.432     6.052     0.040     0.894   199.487     2.191     0.000 .00000E+00 0.000E+00 0.000E+00 0.000E+00
BIGSUB  60        0 2004.48722E+02  1120.000    93.215   966.543   738.327   147.382    84.928   199.237     0.000   309.246     0.200     0.563     0.127     3.867     0.050     0.221   109.484     1.690     0.000 .00000E+00 0.000E+00 0.000E+00 0.000E+00
BIGSUB  61        0 2004.30276E+01  1111.500   127.193   993.354   777.673    97.987    30.659   179.748     0.000   386.623     1.899     2.521     0.571     4.562     0.044     1.094   206.688     2.655     0.000 .00000E+00 0.000E+00 0.000E+00 0.000E+00
BIGSUB  62        0 2004.14782E+02  1120.200   107.612   974.814   740.763   127.237    34.625   194.118     0.000   400.421     1.265     2.102     0.499     4.448     0.046     0.883   206.086     2.629     0.000 .00000E+00 0.000E+00 0.000E+00 0.000E+00
BIGSUB  63        0 2004.10981E+03  1092.700   112.694   994.211   755.550   119.051    64.815   178.199     0.000   320.198     0.305     0.757     0.168     2.593     0.040     0.305   141.595     1.770     0.000 .00000E+00 0.000E+00 0.000E+00 0.000E+00
BIGSUB  64        0 2004.20063E+02  1107.200    96.641   994.587   754.649   115.268    41.671   201.946     0.000   372.134     0.778     1.575     0.362     2.874     0.044     0.642   169.921     2.209     0.000 .00000E+00 0.000E+00 0.000E+00 0.000E+00
BIGSUB  65        0 2004.43984E+02  1129.500    96.203   984.736   756.028   146.504    82.748   199.984     0.000   307.564     0.219     0.624     0.139     3.702     0.051     0.253   107.063     1.574     0.000 .00000E+00 0.000E+00 0.000E+00 0.000E+00
BIGSUB  66        0 2004.19313E+01  1107.200    96.643   994.422   755.989   119.114    50.903   204.409     0.000   356.169     0.658     1.338     0.297     2.853     0.056     0.471   151.435     1.990     0.000 .00000E+00 0.000E+00 0.000E+00 0.000E+00
BIGSUB  67        0 2004.13333E+02  1091.600   104.701   993.889   754.493   119.743    47.603   185.749     0.000   344.154     0.707     1.386     0.321     4.412     0.047     0.576   158.105     1.968     0.000 .00000E+00 0.000E+00 0.000E+00 0.000E+00
BIGSUB  68        0 2004.63069E+02  1128.300   119.406   995.218   591.546   205.721   110.512    42.029     0.000   432.883    55.106     9.403     1.162     0.000     0.002     3.013   390.211     0.212     0.000 .00000E+00 0.000E+00 0.000E+00 0.000E+00
BIGSUB  69        0 2004.99706E+01  1140.800   102.962   986.347   759.587   124.927    27.808   193.401     0.000   408.815     1.973     2.597     0.612     4.900     0.046     1.106   215.238     2.669     0.000 .00000E+00 0.000E+00 0.000E+00 0.000E+00
BIGSUB  70        0 2004.67884E+02  1235.700    99.721  1058.113   577.037   161.269    29.635    35.834     0.000   628.105   524.576    12.667     1.571     0.000     0.001     3.249   592.126     0.324     0.000 .00000E+00 0.000E+00 0.000E+00 0.000E+00
BIGSUB  71        0 2004.67294E+02  1161.800    90.590  1049.061   617.011   180.998    72.649    34.548     0.000   487.214    89.228     9.772     1.208     0.000     0.001     3.161   452.286     0.234     0.000 .00000E+00 0.000E+00 0.000E+00 0.000E+00
BIGSUB  72        0 2004.10533E+03  1139.500    94.413  1048.258   616.041   181.001    92.416    37.017     0.000   448.449    80.120     9.973     1.232     0.000     0.001     3.217   410.956     0.219     0.000 .00000E+00 0.000E+00 0.000E+00 0.000E+00
BIGSUB  73        0 2004.27515E+03  1141.500   116.410  1055.479   792.891    90.478    15.135   177.636     0.000   401.685     1.293     2.168     0.494     5.002     0.033     1.022   223.962     3.877     0.000 .00000E+00 0.000E+00 0.000E+00 0.000E+00
BIGSUB  74        0 2004.13556E+03  1132.100   143.804   997.550   768.743    90.673    34.693   185.093     0.000   410.601     2.142     2.853     0.608     2.918     0.033     1.389   225.305     3.331     0.000 .00000E+00 0.000E+00 0.000E+00 0.000E+00
BIGSUB  75        0 2004.12236E+03  1101.100   142.441  1031.221   763.806    77.728    20.736   174.428     0.000   400.930     2.573     3.198     0.705     2.479     0.032     1.413   226.384     2.520     0.000 .00000E+00 0.000E+00 0.000E+00 0.000E+00
BIGSUB  76        0 2004.56379E+02  1107.400   127.901  1030.184   760.588    78.095    22.603   197.131     0.000   415.842     2.282     3.193     0.709     3.065     0.036     1.333   218.582     2.292     0.000 .00000E+00 0.000E+00 0.000E+00 0.000E+00
BIGSUB  77        0 2004.77624E+02  1130.500   122.606  1030.246   773.824   100.087    66.741   214.396     0.000   357.909     0.360     0.917     0.207     3.036     0.049     0.384   143.114     1.524     0.000 .00000E+00 0.000E+00 0.000E+00 0.000E+00
BIGSUB  78        0 2004.55921E+02  1098.700   131.856  1030.326   776.711    84.147    39.339   189.939     0.000   377.200     1.435     2.239     0.493     3.340     0.037     0.949   187.023     1.833     0.000 .00000E+00 0.000E+00 0.000E+00 0.000E+00
BIGSUB  79        0 2004.81876E+02  1144.000   139.198   996.525   585.960   205.206    74.805    31.345     0.000   488.434    79.404     6.928     0.857     0.000     0.001     2.230   456.652     0.241     0.000 .00000E+00 0.000E+00 0.000E+00 0.000E+00
BIGSUB  80        0 2004.61560E+02  1101.800   131.950   996.180   771.855    92.489    46.173   189.628     0.000   372.686     0.797     1.600     0.384     3.383     0.042     0.743   182.782     2.696     0.000 .00000E+00 0.000E+00 0.000E+00 0.000E+00
BIGSUB  81        0 2004.61322E+02  1101.100   135.131   995.702   777.116    95.358    45.719   183.714     0.000   365.529     0.701     1.471     0.338     5.906     0.040     0.682   181.540     2.380     0.000 .00000E+00 0.000E+00 0.000E+00 0.000E+00
BIGSUB  82        0 2004.14168E+03  1120.400   126.803  1030.039   772.604    86.604    39.203   202.922     0.000   392.856     1.143     2.094     0.444     3.186     0.037     0.888   189.700     1.868     0.000 .00000E+00 0.000E+00 0.000E+00 0.000E+00
BIGSUB  83        0 2004.13441E+03  1115.200   138.294   995.810   774.179   108.174    55.460   188.151     0.000   360.090     0.582     1.240     0.287     3.911     0.041     0.580   171.605     2.372     0.000 .00000E+00 0.000E+00 0.000E+00 0.000E+00
BIGSUB  84        0 2004.18508E+03  1108.000   129.473  1029.611   779.122    86.564    41.030   196.001     0.000   376.186     0.954     1.860     0.403     3.525     0.038     0.804   179.939     1.754     0.000 .00000E+00 0.000E+00 0.000E+00 0.000E+00
BIGSUB  85        0 2004.88601E+02  1106.500   128.182  1028.974   786.022    87.021    39.835   190.276     0.000   368.571     0.865     1.711     0.372     3.549     0.038     0.733   178.054     1.806     0.000 .00000E+00 0.000E+00 0.000E+00 0.000E+00
BIGSUB  86        0 2004.64542E+02  1114.400   126.764   994.915   780.901   107.511    50.034   187.399     0.000   356.393     0.590     1.285     0.280     5.617     0.039     0.586   168.693     2.118     0.000 .00000E+00 0.000E+00 0.000E+00 0.000E+00
BIGSUB  87        0 2004.63476E+02  1114.400   126.769   994.633   780.699   107.608    50.056   188.200     0.000   357.266     0.671     1.409     0.308     5.618     0.039     0.648   168.764     2.118     0.000 .00000E+00 0.000E+00 0.000E+00 0.000E+00
BIGSUB  88        0 2004.75994E+02  1106.500   128.182  1028.476   787.988    92.197    49.358   190.954     0.000   350.260     0.606     1.355     0.292     3.509     0.040     0.577   159.008     1.602     0.000 .00000E+00 0.000E+00 0.000E+00 0.000E+00
BIGSUB  89        0 2004.46680E+02  1147.900   124.353   994.231   789.564   123.794    50.935   187.903     0.000   362.438     0.620     1.321     0.318     4.883     0.045     0.631   174.228     2.146     0.000 .00000E+00 0.000E+00 0.000E+00 0.000E+00
BIGSUB  90        0 2004.85958E+02  1164.800   125.627  1004.347   790.642   115.264    43.661   188.921     0.000   386.284     0.932     1.722     0.428     4.955     0.044     0.855   197.100     2.406     0.000 .00000E+00 0.000E+00 0.000E+00 0.000E+00
BIGSUB  91        0 2004.47573E+02  1163.100   125.922  1003.694   798.390   130.251    63.290   181.446     0.000   341.742     0.427     0.991     0.244     4.947     0.047     0.463   159.916     1.937     0.000 .00000E+00 0.000E+00 0.000E+00 0.000E+00
BIGSUB  92        0 2004.10723E+03  1096.100   117.303  1027.837   790.788    95.815    59.007   185.119     0.000   318.638     0.386     0.929     0.191     2.341     0.037     0.398   133.156     1.434     0.000 .00000E+00 0.000E+00 0.000E+00 0.000E+00
BIGSUB  93        0 2004.54873E+02  1122.700   119.558   993.849   784.059   116.845    61.897   187.631     0.000   335.159     0.452     1.032     0.242     4.873     0.044     0.467   147.154     1.892     0.000 .00000E+00 0.000E+00 0.000E+00 0.000E+00
BIGSUB  94        0 2004.11684E+03  1104.600   113.694  1027.873   788.511    97.995    59.546   196.177     0.000   324.301     0.391     0.981     0.205     2.275     0.040     0.407   127.757     1.338     0.000 .00000E+00 0.000E+00 0.000E+00 0.000E+00
BIGSUB  95        0 2004.69423E+02  1163.100   125.923  1003.157   797.838   129.440    61.102   181.487     0.000   345.911     0.489     1.087     0.267     4.958     0.045     0.515   164.056     1.986     0.000 .00000E+00 0.000E+00 0.000E+00 0.000E+00
BIGSUB  96        0 2004.93940E+02  1197.500   130.147  1003.549   803.821   129.849    44.207   185.970     0.000   388.914     1.215     2.044     0.444     5.114     0.036     0.993   202.675     2.330     0.000 .00000E+00 0.000E+00 0.000E+00 0.000E+00
BIGSUB  97        0 2004.67883E+02  1099.300   122.056   993.990   780.210   125.157    95.947   181.645     0.000   263.990     0.120     0.354     0.089     4.697     0.044     0.144    81.765     1.003     0.000 .00000E+00 0.000E+00 0.000E+00 0.000E+00
BIGSUB  98        0 2004.72823E+02  1142.000   123.995   977.302   751.126   130.712    52.684   193.821     0.000   385.049     0.861     1.616     0.354     3.485     0.042     0.713   190.905     2.167     0.000 .00000E+00 0.000E+00 0.000E+00 0.000E+00
BIGSUB  99        0 2004.10338E+03  1099.300   122.063   993.433   779.672   119.800    80.502   181.144     0.000   289.733     0.192     0.531     0.121     4.758     0.041     0.230   108.101     1.308     0.000 .00000E+00 0.000E+00 0.000E+00 0.000E+00
BIGSUB 100        0 2004.12413E+03  1094.600   112.997   995.430   764.060   123.300   101.886   184.510     0.000   258.805     0.109     0.314     0.077     2.378     0.043     0.124    73.662     0.883     0.000 .00000E+00 0.000E+00 0.000E+00 0.000E+00
BIGSUB 101        0 2004.85573E+02  1118.400   108.460   977.196   746.558   137.463    82.559   204.839     0.000   318.753     0.333     0.866     0.180     2.809     0.044     0.350   113.406     1.332     0.000 .00000E+00 0.000E+00 0.000E+00 0.000E+00
BIGSUB 102        0 2004.12177E+03  1142.000   123.997   977.231   751.085   130.729    52.688   193.262     0.000   384.506     0.709     1.438     0.311     3.484     0.042     0.628   190.921     2.169     0.000 .00000E+00 0.000E+00 0.000E+00 0.000E+00
BIGSUB 103        0 2004.73049E+02  1188.200   113.507   988.845   769.966   124.132    17.781   197.192     0.000   438.581     3.561     3.812     0.834     3.937     0.037     1.649   241.287     2.523     0.000 .00000E+00 0.000E+00 0.000E+00 0.000E+00
BIGSUB 104        0 2004.66185E+02  1111.400    96.714   995.369   756.794   107.422    38.886   206.474     0.000   375.790     0.806     1.676     0.363     2.751     0.042     0.707   169.068     2.045     0.000 .00000E+00 0.000E+00 0.000E+00 0.000E+00
BIGSUB 105        0 2004.63992E+02  1154.300   115.194   988.389   764.503   128.569    39.324   194.079     0.000   396.380     1.273     2.198     0.497     3.578     0.042     0.988   202.060     2.186     0.000 .00000E+00 0.000E+00 0.000E+00 0.000E+00
BIGSUB 106        0 2004.65548E+02  1104.400   108.087   995.490   756.835   104.532    40.767   192.856     0.000   371.515     0.859     1.731     0.363     2.701     0.039     0.743   178.400     2.156     0.000 .00000E+00 0.000E+00 0.000E+00 0.000E+00
BIGSUB 107        0 2004.15707E+03  1134.900   119.772   976.426   755.730   137.119    68.078   185.715     0.000   340.990     0.400     0.945     0.211     4.357     0.044     0.395   154.856     1.922     0.000 .00000E+00 0.000E+00 0.000E+00 0.000E+00
BIGSUB 108        0 2004.12295E+03  1188.200   113.519   988.134   774.731   137.005    45.246   200.901     0.000   398.495     1.211     2.076     0.452     3.837     0.042     0.929   197.311     1.959     0.000 .00000E+00 0.000E+00 0.000E+00 0.000E+00
BIGSUB 109        0 2004.72640E+02  1158.100   109.008   987.853   765.239   125.535    19.881   190.885     0.000   421.318     2.305     3.025     0.672     5.021     0.037     1.301   230.320     2.734     0.000 .00000E+00 0.000E+00 0.000E+00 0.000E+00
BIGSUB 110        0 2004.64798E+02  1118.100    99.723   994.915   760.941   122.586    60.461   207.890     0.000   341.115     0.341     0.864     0.198     2.678     0.047     0.344   132.846     1.605     0.000 .00000E+00 0.000E+00 0.000E+00 0.000E+00
BIGSUB 111        0 2004.69187E+02  1126.100   116.323   976.032   749.048   138.898    78.405   190.659     0.000   325.772     0.278     0.727     0.167     4.011     0.048     0.298   134.631     1.631     0.000 .00000E+00 0.000E+00 0.000E+00 0.000E+00
BIGSUB 112        0 2004.58161E+02  1111.400    96.720   994.978   759.273   115.586    51.625   208.661     0.000   352.614     0.522     1.232     0.267     2.639     0.044     0.501   143.626     1.754     0.000 .00000E+00 0.000E+00 0.000E+00 0.000E+00
BIGSUB 113        0 2004.47674E+02  1096.100   109.703   976.040   741.921   130.229    55.626   183.663     0.000   340.581     0.469     1.079     0.237     2.766     0.042     0.440   156.573     1.949     0.000 .00000E+00 0.000E+00 0.000E+00 0.000E+00
BIGSUB 114        0 2004.46343E+02  1112.600    95.740   994.370   759.291   121.345    55.737   202.838     0.000   347.734     0.392     0.983     0.227     2.771     0.047     0.400   144.543     1.918     0.000 .00000E+00 0.000E+00 0.000E+00 0.000E+00
BIGSUB 115        0 2004.46570E+02  1126.100   116.335   975.598   748.196   135.742    66.438   190.781     0.000   346.312     0.426     1.022     0.231     4.071     0.047     0.425   155.122     1.868     0.000 .00000E+00 0.000E+00 0.000E+00 0.000E+00
BIGSUB 116        0 2004.10961E+03  1178.700   109.285   987.221   781.886   129.219    29.067   190.006     0.000   410.862     1.934     2.667     0.575     4.716     0.036     1.162   220.673     2.513     0.000 .00000E+00 0.000E+00 0.000E+00 0.000E+00
BIGSUB 117        0 2004.66191E+02  1151.100   104.524   986.925   765.320   135.584    48.710   197.037     0.000   375.734     0.810     1.584     0.352     5.240     0.043     0.674   178.394     2.296     0.000 .00000E+00 0.000E+00 0.000E+00 0.000E+00
BIGSUB 118        0 2004.47181E+02  1098.100   100.810   993.309   758.584   122.801    56.503   186.176     0.000   329.218     0.411     0.989     0.223     2.966     0.044     0.421   142.686     1.882     0.000 .00000E+00 0.000E+00 0.000E+00 0.000E+00
BIGSUB 119        0 2004.79273E+02  1129.700   108.974   975.417   748.673   129.852    41.104   192.179     0.000   387.892     0.736     1.434     0.336     4.245     0.044     0.622   195.456     2.409     0.000 .00000E+00 0.000E+00 0.000E+00 0.000E+00
BIGSUB 120        0 2004.51977E+02  1091.600   104.706   993.567   755.646   123.678    58.148   184.412     0.000   322.358     0.387     0.934     0.214     4.355     0.045     0.391   137.582     1.721     0.000 .00000E+00 0.000E+00 0.000E+00 0.000E+00
BIGSUB 121        0 2004.69059E+02  1100.900   116.144   975.247   735.494   133.799    68.613   185.158     0.000   335.112     0.395     0.908     0.205     4.049     0.044     0.386   149.530     1.933     0.000 .00000E+00 0.000E+00 0.000E+00 0.000E+00
BIGSUB 122        0 2004.13184E+03  1105.600    95.877   993.808   758.443   128.499    69.312   195.509     0.000   316.522     0.259     0.686     0.156     2.869     0.045     0.281   120.577     1.664     0.000 .00000E+00 0.000E+00 0.000E+00 0.000E+00
BIGSUB 123        0 2004.47215E+02  1134.900   119.789   975.652   755.938   141.213    83.637   186.479     0.000   316.192     0.273     0.712     0.165     4.296     0.049     0.286   129.200     1.615     0.000 .00000E+00 0.000E+00 0.000E+00 0.000E+00
BIGSUB 124        0 2004.46326E+02  1170.400   100.319   986.501   765.211   103.870     0.000   182.616     0.000   445.251     4.471     4.057     0.884     4.962     0.034     1.656   262.636     3.186     0.000 .00000E+00 0.000E+00 0.000E+00 0.000E+00
BIGSUB 125        0 2004.99109E+02  1092.600   110.526   975.001   737.047   134.446    67.801   180.611     0.000   321.968     0.318     0.788     0.174     4.027     0.041     0.324   140.938     1.849     0.000 .00000E+00 0.000E+00 0.000E+00 0.000E+00
BIGSUB 126        0 2004.60294E+02  1140.800   102.955   986.750   761.035   127.702    34.864   192.839     0.000   394.890     1.129     2.015     0.466     4.831     0.042     0.875   201.832     2.496     0.000 .00000E+00 0.000E+00 0.000E+00 0.000E+00
BIGSUB 127        0 2004.95675E+02  1107.100    93.938   974.548   738.192   134.203    42.580   197.374     0.000   369.501     0.735     1.486     0.318     3.034     0.039     0.632   171.858     2.461     0.000 .00000E+00 0.000E+00 0.000E+00 0.000E+00
BIGSUB 128        0 2004.92288E+02  1142.600    98.166   986.112   756.010   123.652    21.548   195.622     0.000   423.286     2.288     3.084     0.657     4.675     0.036     1.291   227.532     3.058     0.000 .00000E+00 0.000E+00 0.000E+00 0.000E+00
BIGSUB 129        0 2004.10380E+03  1152.000    94.225   986.121   754.468    87.904     0.000   164.155     0.000   444.254     4.197     3.658     0.785     3.959     0.029     1.520   280.099     3.543     0.000 .00000E+00 0.000E+00 0.000E+00 0.000E+00
BIGSUB 130        0 2004.74558E+02  1115.500   106.887   974.062   743.245   133.350    52.414   187.465     0.000   362.849     0.549     1.218     0.263     4.066     0.041     0.511   175.056     2.479     0.000 .00000E+00 0.000E+00 0.000E+00 0.000E+00
BIGSUB 131        0 2004.15440E+03  1090.200    99.737   974.231   735.614   144.608    72.611   188.232     0.000   304.619     0.221     0.577     0.129     3.636     0.043     0.242   115.939     1.778     0.000 .00000E+00 0.000E+00 0.000E+00 0.000E+00
BIGSUB 132        0 2004.10758E+03  1142.600    98.173   985.635   756.777   126.502    27.085   196.944     0.000   413.962     1.749     2.660     0.561     4.724     0.037     1.121   216.845     2.905     0.000 .00000E+00 0.000E+00 0.000E+00 0.000E+00
BIGSUB 133        0 2004.73436E+02  1124.900   112.658   973.910   750.837   141.793    83.746   186.498     0.000   309.975     0.230     0.618     0.142     4.162     0.047     0.251   122.960     1.713     0.000 .00000E+00 0.000E+00 0.000E+00 0.000E+00
BIGSUB 134        0 2004.21515E+03  1106.600    92.361   973.732   744.901   140.193    60.150   198.053     0.000   329.330     0.325     0.801     0.162     3.115     0.039     0.346   130.900     1.936     0.000 .00000E+00 0.000E+00 0.000E+00 0.000E+00
BIGSUB 135        0 2004.45757E+02  1143.300    92.681   985.006   762.223   129.406    30.626   199.794     0.000   403.100     1.281     2.276     0.474     4.313     0.041     0.965   203.109     2.766     0.000 .00000E+00 0.000E+00 0.000E+00 0.000E+00
BIGSUB 136        0 2004.92515E+02  1120.900   106.276   973.153   744.051   146.483    82.986   188.746     0.000   312.375     0.287     0.763     0.165     3.442     0.046     0.322   123.113     1.800     0.000 .00000E+00 0.000E+00 0.000E+00 0.000E+00
BIGSUB 137        0 2004.13378E+03  1143.300    92.688   984.487   762.835   132.877    39.423   200.600     0.000   386.890     0.986     1.911     0.391     4.210     0.040     0.815   186.040     2.559     0.000 .00000E+00 0.000E+00 0.000E+00 0.000E+00
BIGSUB 138        0 2004.71124E+02  1128.100    86.873   966.299   733.833   141.375    68.300   208.664     0.000   349.487     0.363     0.945     0.196     3.905     0.048     0.388   140.397     2.248     0.000 .00000E+00 0.000E+00 0.000E+00 0.000E+00
BIGSUB 139        0 2004.91214E+02  1119.500    94.625   967.053   730.492   146.354    65.055   209.083     0.000   344.610     0.393     1.010     0.206     3.812     0.049     0.425   135.120     2.246     0.000 .00000E+00 0.000E+00 0.000E+00 0.000E+00
BIGSUB   1        0 2005.39329E+02  1122.400   111.319  1107.925   685.624    56.050     0.000   178.885     0.000   500.587    16.519    12.791     2.111     1.128     0.028     3.265   321.701     3.031     0.000 .00000E+00 0.000E+00 0.000E+00 0.000E+00
BIGSUB   2        0 2005.13580E+03  1113.000    90.851  1106.900   671.805    56.490     0.000   178.222     0.000   495.293     9.160     7.164     1.273     1.521     0.026     2.354   317.071     3.630     0.000 .00000E+00 0.000E+00 0.000E+00 0.000E+00
BIGSUB   3        0 2005.14611E+03  1104.700   104.741  1106.243   540.548   179.339    39.245    52.751     0.000   556.064   212.142    11.385     1.414     0.000     0.001     3.729   503.313     0.275     0.000 .00000E+00 0.000E+00 0.000E+00 0.000E+00
BIGSUB   4        0 2005.40478E+02  1102.600    93.513  1091.061   663.847   105.269     4.540   217.938     0.000   422.668     1.129     2.466     0.557     1.631     0.055     1.135   204.730     2.257     0.000 .00000E+00 0.000E+00 0.000E+00 0.000E+00
BIGSUB   5        0 2005.35903E+01  1102.600    93.517  1090.844   642.311    95.198     0.000   202.689     0.000   446.367     2.264     3.516     0.784     1.706     0.057     1.544   243.678     2.667     0.000 .00000E+00 0.000E+00 0.000E+00 0.000E+00
BIGSUB   6        0 2005.35801E+01  1102.600    86.081  1090.590   789.085    99.835    78.773    45.194     0.000   270.966     0.243     0.599     0.075     0.005     0.010     0.187   225.772     0.183     0.000 .00000E+00 0.000E+00 0.000E+00 0.000E+00
BIGSUB   7        0 2005.81622E+02  1111.200   153.801  1029.175   678.784    70.442     0.000   202.310     0.000   460.312     2.530     3.969     1.065     1.518     0.049     1.879   258.002     2.647     0.000 .00000E+00 0.000E+00 0.000E+00 0.000E+00
BIGSUB   8        0 2005.37902E+02  1109.000   144.836  1028.714   709.302    90.107    17.625   244.791     0.000   416.297     0.850     2.044     0.527     2.024     0.067     0.959   171.506     2.030     0.000 .00000E+00 0.000E+00 0.000E+00 0.000E+00
BIGSUB   9        0 2005.50283E+02  1117.700   123.890  1028.611   511.344   179.406    57.777    72.531     0.000   572.422   312.143    11.358     1.418     0.000     0.001     3.727   499.890     0.269     0.000 .00000E+00 0.000E+00 0.000E+00 0.000E+00
BIGSUB  10        0 2005.47997E+02  1117.700   123.908  1027.849   524.658   179.427   107.502    79.643     0.000   511.899   129.540    11.568     1.437     0.001     0.002     3.726   432.256     0.253     0.000 .00000E+00 0.000E+00 0.000E+00 0.000E+00
BIGSUB  11        0 2005.53852E+02  1127.800   126.258  1027.479   523.322   179.358    92.456    73.483     0.000   534.120   198.794    11.984     1.493     0.001     0.002     3.877   460.637     0.259     0.000 .00000E+00 0.000E+00 0.000E+00 0.000E+00
BIGSUB  12        0 2005.25271E+01  1127.800   126.266  1027.170   533.298   179.367   152.775    77.294     0.000   465.030   170.449    13.216     1.641     0.001     0.002     4.233   387.736     0.231     0.000 .00000E+00 0.000E+00 0.000E+00 0.000E+00
BIGSUB  13        0 2005.22422E+01  1127.100   126.241  1027.080   541.721   179.558   236.273    86.149     0.000   383.411    52.524    14.715     1.819     0.001     0.005     4.651   297.261     0.180     0.000 .00000E+00 0.000E+00 0.000E+00 0.000E+00
BIGSUB  14        0 2005.13292E+03  1137.700   124.318  1026.117   528.066   179.518   126.057    84.144     0.000   510.731   129.280    13.836     1.718     0.001     0.002     4.435   426.587     0.250     0.000 .00000E+00 0.000E+00 0.000E+00 0.000E+00
BIGSUB  15        0 2005.10831E+02  1148.300   142.827  1025.252   719.280   107.958    34.797   256.033     0.000   425.995     0.847     2.016     0.485     2.017     0.069     0.922   169.764     1.673     0.000 .00000E+00 0.000E+00 0.000E+00 0.000E+00
BIGSUB  16        0 2005.49593E+02  1157.300   172.883  1008.790   732.963   117.900    65.270   265.005     0.000   392.179     0.414     1.177     0.273     2.093     0.061     0.467   126.803     1.301     0.000 .00000E+00 0.000E+00 0.000E+00 0.000E+00
BIGSUB  17        0 2005.14826E+03  1137.200   123.200  1026.782   527.939   179.292   152.565    86.699     0.000   489.983   118.400    14.311     1.777     0.001     0.003     4.575   402.432     0.238     0.000 .00000E+00 0.000E+00 0.000E+00 0.000E+00
BIGSUB  18        0 2005.67887E+02  1166.700   187.674  1008.242   732.235   120.493    59.496   256.642     0.000   404.318     0.563     1.447     0.342     2.006     0.057     0.622   147.336     1.508     0.000 .00000E+00 0.000E+00 0.000E+00 0.000E+00
BIGSUB  19        0 2005.18573E+00  1137.200   139.212  1026.450   706.914    85.932     7.554   235.080     0.000   463.658     2.175     3.981     0.834     2.329     0.087     1.568   228.535     2.183     0.000 .00000E+00 0.000E+00 0.000E+00 0.000E+00
BIGSUB  20        0 2005.14568E+01  1137.200   139.143  1026.349   719.912   107.439    48.655   256.016     0.000   412.047     0.752     1.887     0.428     2.061     0.080     0.789   155.753     1.527     0.000 .00000E+00 0.000E+00 0.000E+00 0.000E+00
BIGSUB  21        0 2005.96526E+02  1139.100   127.801  1026.364   528.831   179.195   119.730    75.608     0.000   512.391   155.354    12.477     1.552     0.001     0.002     4.012   436.120     0.252     0.000 .00000E+00 0.000E+00 0.000E+00 0.000E+00
BIGSUB  22        0 2005.33778E+02  1166.700   187.694  1007.760   729.332   104.513    32.390   247.282     0.000   436.859     1.297     2.726     0.651     2.021     0.054     1.199   189.393     1.913     0.000 .00000E+00 0.000E+00 0.000E+00 0.000E+00
BIGSUB  23        0 2005.67360E+01  1139.200   166.901   989.930   724.794   121.917    83.826   268.675     0.000   380.334     0.271     0.910     0.229     1.204     0.081     0.371   111.182     1.040     0.000 .00000E+00 0.000E+00 0.000E+00 0.000E+00
BIGSUB  24        0 2005.61572E+02  1147.900   160.054  1025.491   726.203   108.694    37.130   247.134     0.000   409.885     0.752     1.859     0.468     2.187     0.065     0.850   162.539     1.607     0.000 .00000E+00 0.000E+00 0.000E+00 0.000E+00
BIGSUB  25        0 2005.70143E+02  1175.100   206.239  1007.122   731.872   109.174    24.307   243.810     0.000   451.097     1.396     2.830     0.678     1.508     0.049     1.227   207.149     2.096     0.000 .00000E+00 0.000E+00 0.000E+00 0.000E+00
BIGSUB  26        0 2005.89333E+02  1151.900   179.364   990.274   717.251    95.175    31.219   259.118     0.000   458.549     1.533     3.206     0.768     1.182     0.056     1.519   199.253     1.435     0.000 .00000E+00 0.000E+00 0.000E+00 0.000E+00
BIGSUB  27        0 2005.55870E+01  1184.800   188.809  1006.631   533.532   179.531   111.659    74.398     0.000   547.314   200.923    10.834     1.343     0.000     0.002     3.541   472.305     0.254     0.000 .00000E+00 0.000E+00 0.000E+00 0.000E+00
BIGSUB  28        0 2005.16286E+02  1109.000   144.768  1028.798   668.765    70.800     0.000   209.574     0.000   470.407     2.597     3.948     1.009     2.061     0.054     1.843   260.833     2.991     0.000 .00000E+00 0.000E+00 0.000E+00 0.000E+00
BIGSUB  29        0 2005.84670E+02  1157.200   179.696  1008.941   725.784   115.601    52.026   261.322     0.000   410.404     0.774     1.977     0.450     2.168     0.059     0.822   148.785     1.531     0.000 .00000E+00 0.000E+00 0.000E+00 0.000E+00
BIGSUB  30        0 2005.20923E+02  1165.200   181.109  1008.398   732.673   130.706    72.680   260.471     0.000   383.370     0.372     1.089     0.260     2.153     0.065     0.441   122.484     1.296     0.000 .00000E+00 0.000E+00 0.000E+00 0.000E+00
BIGSUB  31        0 2005.77724E+02  1151.900   179.405   989.653   710.938    83.066    13.778   248.845     0.000   481.719     2.397     4.153     0.998     1.175     0.052     1.926   232.796     1.595     0.000 .00000E+00 0.000E+00 0.000E+00 0.000E+00
[...]
BIGSUB  62        0 20.3.14782E+02  1151.327   116.815  1022.081   746.925   136.796    14.498   209.843     0.000   386.785     1.102     3.277     0.842     3.809     0.082     1.555   176.859     3.826     0.000 .00000E+00 0.000E+00 0.000E+00 0.000E+00
BIGSUB  63        0 20.3.10981E+03  1161.188   123.760  1037.969   764.614   169.186    44.933   227.737     0.000   348.590     0.333     1.340     0.367     4.169     0.119     0.670   120.597     2.790     0.000 .00000E+00 0.000E+00 0.000E+00 0.000E+00
BIGSUB  64        0 20.3.20063E+02  1177.414   123.483  1038.362   765.630   152.125    28.100   228.509     0.000   380.544     0.748     2.730     0.756     3.828     0.115     1.377   151.875     3.454     0.000 .00000E+00 0.000E+00 0.000E+00 0.000E+00
BIGSUB  65        0 20.3.43984E+02  1143.570   114.694  1024.734   768.114   174.735    64.566   222.164     0.000   307.632     0.175     0.695     0.193     3.567     0.097     0.305    85.100     1.953     0.000 .00000E+00 0.000E+00 0.000E+00 0.000E+00
BIGSUB  66        0 20.3.19313E+01  1177.414   123.502  1038.189   767.189   162.568    39.568   232.865     0.000   367.519     0.628     2.165     0.584     3.891     0.133     0.993   134.428     3.097     0.000 .00000E+00 0.000E+00 0.000E+00 0.000E+00
BIGSUB  67        0 20.3.13333E+02  1157.199   120.200  1037.633   763.569   156.996    31.350   220.033     0.000   359.069     0.652     2.203     0.610     3.945     0.110     1.118   138.858     3.088     0.000 .00000E+00 0.000E+00 0.000E+00 0.000E+00
BIGSUB  68        0 20.3.63069E+02  1172.761   100.003  1040.865   599.055   167.019   133.178    64.454    24.794   465.870    91.184     9.232     1.140     0.000     0.002     2.988   375.862     0.224     0.001 .00000E+00 0.000E+00 0.000E+00 0.000E+00
BIGSUB  69        0 20.3.99706E+01  1152.148   117.968  1026.438   751.503   127.752     8.403   203.229     0.000   388.916     1.700     3.864     0.967     3.901     0.070     1.779   185.639     3.858     0.000 .00000E+00 0.000E+00 0.000E+00 0.000E+00
BIGSUB  70        0 20.3.67884E+02  1256.046    89.929  1094.875   580.711   142.106    27.702    63.289     0.000   648.199  1184.658    12.412     1.537     0.001     0.001     3.180   584.752     0.342     0.000 .00000E+00 0.000E+00 0.000E+00 0.000E+00
BIGSUB  71        0 20.3.67294E+02  1212.188    86.778  1080.583   612.813   165.995    80.985    59.600     0.000   519.182   172.380     9.345     1.155     0.000     0.001     3.048   459.120     0.265     0.000 .00000E+00 0.000E+00 0.000E+00 0.000E+00
BIGSUB  72        0 20.3.10533E+03  1198.037    82.113  1079.749   615.378   167.559   104.521    61.859    10.004   489.016   123.986     9.331     1.152     0.000     0.001     3.030   416.556     0.251     0.000 .00000E+00 0.000E+00 0.000E+00 0.000E+00
BIGSUB  73        0 20.3.27515E+03  1214.578    98.547  1092.118   771.268   118.029     3.867   206.677     0.000   437.446     6.981     6.717     1.609     4.251     0.074     3.910   230.747     5.573     0.000 .00000E+00 0.000E+00 0.000E+00 0.000E+00
BIGSUB  74        0 20.3.13556E+03  1183.759   104.944  1043.353   744.789   129.803     9.483   207.656     0.000   427.424     1.765     4.992     1.335     3.952     0.091     2.619   219.714     4.777     0.000 .00000E+00 0.000E+00 0.000E+00 0.000E+00
BIGSUB  75        0 20.3.12236E+03  1186.090   120.562  1070.381   750.918   113.871     4.439   201.997     0.000   429.752     2.447     5.197     1.463     4.139     0.069     2.590   227.729     4.892     0.000 .00000E+00 0.000E+00 0.000E+00 0.000E+00
BIGSUB  76        0 20.3.56379E+02  1187.846   122.956  1069.298   759.360   116.603     5.279   203.752     0.000   421.884     1.880     4.875     1.382     4.367     0.080     2.427   218.103     4.895     0.000 .00000E+00 0.000E+00 0.000E+00 0.000E+00
BIGSUB  77        0 20.3.77624E+02  1202.365   121.383  1069.363   778.056   168.726    51.031   240.190     0.000   371.777     0.362     1.601     0.448     4.778     0.145     0.799   131.296     3.452     0.000 .00000E+00 0.000E+00 0.000E+00 0.000E+00
BIGSUB  78        0 20.3.55921E+02  1179.799   119.682  1069.446   767.535   140.954    16.361   215.832     0.000   394.403     1.366     4.144     1.174     4.055     0.101     2.111   178.478     4.255     0.000 .00000E+00 0.000E+00 0.000E+00 0.000E+00
BIGSUB  79        0 20.3.81876E+02  1177.247    98.695  1042.316   593.041   165.368    84.584    64.090     1.495   501.313   168.470     9.381     1.160     0.000     0.001     3.066   435.246     0.249     0.000 .00000E+00 0.000E+00 0.000E+00 0.000E+00
BIGSUB  80        0 20.3.61560E+02  1176.578   107.458  1041.912   749.821   153.296    26.417   221.883     0.000   397.882     0.936     3.522     0.944     4.025     0.122     1.863   175.848     4.127     0.000 .00000E+00 0.000E+00 0.000E+00 0.000E+00
BIGSUB  81        0 20.3.61322E+02  1174.035   109.264  1041.409   750.021   147.708    26.411   219.916     0.000   395.480     0.770     2.948     0.784     4.237     0.119     1.541   175.413     4.108     0.000 .00000E+00 0.000E+00 0.000E+00 0.000E+00
BIGSUB  82        0 20.3.14168E+03  1194.870   125.875  1069.146   771.533   141.785    17.915   221.480     0.000   403.782     0.954     3.440     0.955     4.244     0.112     1.740   182.200     4.514     0.000 .00000E+00 0.000E+00 0.000E+00 0.000E+00
BIGSUB  83        0 20.3.13441E+03  1175.161   109.676  1041.522   753.371   156.913    34.818   223.301     0.000   384.731     0.662     2.682     0.712     4.243     0.125     1.399   161.231     3.877     0.000 .00000E+00 0.000E+00 0.000E+00 0.000E+00
BIGSUB  84        0 20.3.18508E+03  1186.734   125.213  1068.699   771.073   141.117    19.951   221.614     0.000   394.495     0.863     3.217     0.896     4.184     0.116     1.647   172.768     4.451     0.000 .00000E+00 0.000E+00 0.000E+00 0.000E+00
BIGSUB  85        0 20.3.88601E+02  1184.177   120.705  1068.033   771.910   143.272    19.642   218.979     0.000   391.012     0.792     3.076     0.861     4.544     0.122     1.574   171.921     4.670     0.000 .00000E+00 0.000E+00 0.000E+00 0.000E+00
BIGSUB  86        0 20.3.64542E+02  1170.966   103.833  1040.581   753.172   153.733    33.310   222.455     0.000   382.225     0.620     2.545     0.683     4.119     0.129     1.341   159.580     3.819     0.000 .00000E+00 0.000E+00 0.000E+00 0.000E+00
BIGSUB  87        0 20.3.63476E+02  1170.966   103.845  1040.283   753.026   153.774    33.356   222.507     0.000   382.325     0.698     2.812     0.756     4.118     0.127     1.485   159.628     3.817     0.000 .00000E+00 0.000E+00 0.000E+00 0.000E+00
BIGSUB  88        0 20.3.75994E+02  1184.177   120.746  1067.512   774.896   155.532    30.716   225.325     0.000   377.002     0.567     2.410     0.672     4.558     0.136     1.229   151.502     4.228     0.000 .00000E+00 0.000E+00 0.000E+00 0.000E+00
BIGSUB  89        0 20.3.46680E+02  1166.106   102.910  1039.861   758.976   159.905    32.763   214.918     0.000   371.434     0.617     2.488     0.671     4.037     0.124     1.339   156.329     3.681     0.000 .00000E+00 0.000E+00 0.000E+00 0.000E+00
BIGSUB  90        0 20.3.85958E+02  1171.531   114.726  1037.463   762.968   144.538    18.769   208.991     0.000   388.076     0.904     3.138     0.821     3.994     0.090     1.541   178.978     3.945     0.000 .00000E+00 0.000E+00 0.000E+00 0.000E+00
BIGSUB  91        0 20.3.47573E+02  1167.223   115.916  1036.875   768.417   166.621    40.395   217.671     0.000   356.648     0.442     1.801     0.476     4.023     0.107     0.863   138.746     3.160     0.000 .00000E+00 0.000E+00 0.000E+00 0.000E+00
BIGSUB  92        0 20.3.10723E+03  1171.782   117.987  1066.844   777.082   165.031    43.277   225.053     0.000   349.925     0.383     1.718     0.484     4.734     0.144     0.891   124.626     3.574     0.000 .00000E+00 0.000E+00 0.000E+00 0.000E+00
BIGSUB  93        0 20.3.54873E+02  1165.693   100.446  1039.459   757.864   169.176    46.522   225.279     0.000   358.672     0.501     2.133     0.579     4.035     0.137     1.120   133.128     3.268     0.000 .00000E+00 0.000E+00 0.000E+00 0.000E+00
BIGSUB  94        0 20.3.11684E+03  1180.217   116.950  1066.882   779.393   169.866    47.555   229.910     0.000   351.525     0.348     1.559     0.442     4.599     0.150     0.810   121.345     3.480     0.000 .00000E+00 0.000E+00 0.000E+00 0.000E+00
BIGSUB  95        0 20.3.69423E+02  1167.223   115.938  1036.316   767.705   164.563    38.005   216.927     0.000   359.741     0.504     2.005     0.529     4.006     0.103     0.966   142.598     3.225     0.000 .00000E+00 0.000E+00 0.000E+00 0.000E+00
BIGSUB  96        0 20.3.93940E+02  1168.605   117.496  1036.645   766.480   138.913    17.826   203.140     0.000   383.043     0.983     3.243     0.853     3.777     0.084     1.581   179.801     3.817     0.000 .00000E+00 0.000E+00 0.000E+00 0.000E+00
BIGSUB  97        0 20.3.67883E+02  1167.995   105.536  1039.648   761.820   171.673    94.976   233.570     4.024   313.857     0.130     0.590     0.174     3.970     0.161     0.291    75.722     1.959     0.004 .00000E+00 0.000E+00 0.000E+00 0.000E+00
BIGSUB  98        0 20.3.72823E+02  1160.317   125.156  1024.650   747.704   152.741    27.706   223.407     0.000   382.152     0.743     2.569     0.677     3.606     0.090     1.228   158.587     3.408     0.000 .00000E+00 0.000E+00 0.000E+00 0.000E+00
BIGSUB  99        0 20.3.10338E+03  1167.995   105.550  1039.062   760.539   170.972    74.022   230.775     0.000   331.535     0.217     0.993     0.274     3.916     0.154     0.510   100.338     2.559     0.000 .00000E+00 0.000E+00 0.000E+00 0.000E+00
BIGSUB 100        0 20.3.12413E+03  1165.752   127.089  1039.288   765.044   170.538    91.599   242.450     3.943   310.984     0.106     0.424     0.130     3.626     0.133     0.199    64.069     1.533     0.004 .00000E+00 0.000E+00 0.000E+00 0.000E+00
BIGSUB 101        0 20.3.85573E+02  1160.371   116.754  1024.563   750.011   171.896    71.970   239.463     0.000   336.321     0.264     1.077     0.288     3.437     0.112     0.501    96.448     2.201     0.000 .00000E+00 0.000E+00 0.000E+00 0.000E+00
BIGSUB 102        0 20.3.12177E+03  1160.317   125.160  1024.576   747.670   152.753    27.717   223.419     0.000   382.175     0.617     2.192     0.575     3.605     0.091     1.047   158.598     3.412     0.000 .00000E+00 0.000E+00 0.000E+00 0.000E+00
BIGSUB 103        0 20.3.73049E+02  1162.762   124.694  1029.049   741.201   107.318     2.719   195.364     0.000   416.090     2.464     4.864     1.168     3.842     0.051     2.156   220.711     4.161     0.000 .00000E+00 0.000E+00 0.000E+00 0.000E+00
BIGSUB 104        0 20.3.66185E+02  1183.316   126.854  1039.224   760.864   148.608    27.033   234.286     0.000   391.996     0.695     2.605     0.712     3.584     0.117     1.348   157.555     3.634     0.000 .00000E+00 0.000E+00 0.000E+00 0.000E+00
BIGSUB 105        0 20.3.63992E+02  1162.432   123.474  1028.572   757.750   141.275    15.349   213.878     0.000   385.912     1.010     3.147     0.796     3.703     0.074     1.452   171.946     3.562     0.000 .00000E+00 0.000E+00 0.000E+00 0.000E+00
BIGSUB 106        0 20.3.65548E+02  1174.256   125.035  1039.351   759.602   144.893    22.335   226.419     0.000   388.876     0.712     2.593     0.704     3.658     0.110     1.334   162.330     3.711     0.000 .00000E+00 0.000E+00 0.000E+00 0.000E+00
BIGSUB 107        0 20.3.15707E+03  1157.583   119.430  1023.754   757.870   169.380    43.914   226.559     0.000   352.861     0.377     1.441     0.381     3.853     0.100     0.693   126.052     2.875     0.000 .00000E+00 0.000E+00 0.000E+00 0.000E+00
BIGSUB 108        0 20.3.12295E+03  1162.762   125.240  1028.306   760.987   147.522    19.488   214.924     0.000   379.062     0.880     2.766     0.712     3.849     0.076     1.300   164.028     3.339     0.000 .00000E+00 0.000E+00 0.000E+00 0.000E+00
BIGSUB 109        0 20.3.72640E+02  1157.047   119.505  1028.013   744.387   111.952     3.924   197.166     0.000   406.223     1.873     4.314     1.060     3.752     0.056     1.995   209.034     4.150     0.000 .00000E+00 0.000E+00 0.000E+00 0.000E+00
BIGSUB 110        0 20.3.64798E+02  1188.151   125.466  1038.751   767.098   168.899    54.399   242.146     0.000   363.898     0.355     1.475     0.404     3.434     0.131     0.732   121.442     2.852     0.000 .00000E+00 0.000E+00 0.000E+00 0.000E+00
BIGSUB 111        0 20.3.69187E+02  1155.851   118.520  1023.314   757.009   170.728    57.458   228.943     0.000   338.870     0.279     1.131     0.305     3.970     0.107     0.530   109.599     2.542     0.000 .00000E+00 0.000E+00 0.000E+00 0.000E+00
BIGSUB 112        0 20.3.58161E+02  1183.316   126.470  1038.817   764.673   164.566    43.423   239.534     0.000   372.311     0.476     1.920     0.526     3.538     0.127     0.979   132.530     3.128     0.000 .00000E+00 0.000E+00 0.000E+00 0.000E+00
BIGSUB 113        0 20.3.47674E+02  1156.023   120.106  1023.346   752.986   160.227    38.919   226.297     0.000   361.342     0.449     1.744     0.460     3.899     0.106     0.825   134.823     3.063     0.000 .00000E+00 0.000E+00 0.000E+00 0.000E+00
BIGSUB 114        0 20.3.46343E+02  1185.667   122.540  1038.182   769.082   166.599    46.977   237.109     0.000   366.443     0.394     1.634     0.453     3.737     0.129     0.823   129.066     3.001     0.000 .00000E+00 0.000E+00 0.000E+00 0.000E+00
BIGSUB 115        0 20.3.46570E+02  1155.851   118.541  1022.856   755.544   165.089    44.291   226.082     0.000   353.310     0.422     1.651     0.438     3.983     0.103     0.782   126.976     2.911     0.000 .00000E+00 0.000E+00 0.000E+00 0.000E+00
BIGSUB 116        0 20.3.10961E+03  1156.899   119.955  1027.351   752.780   127.755     7.065   202.688     0.000   394.027     1.496     3.901     0.969     3.675     0.061     1.787   191.298     3.859     0.000 .00000E+00 0.000E+00 0.000E+00 0.000E+00
BIGSUB 117        0 20.3.66191E+02  1152.399   117.350  1027.042   762.403   155.944    25.601   216.080     0.000   360.856     0.697     2.380     0.610     3.910     0.081     1.101   144.631     3.114     0.000 .00000E+00 0.000E+00 0.000E+00 0.000E+00
BIGSUB 118        0 20.3.47181E+02  1164.306   120.746  1037.028   766.878   164.544    42.297   227.250     0.000   352.030     0.405     1.590     0.441     3.932     0.117     0.813   124.538     2.808     0.000 .00000E+00 0.000E+00 0.000E+00 0.000E+00
BIGSUB 119        0 20.3.79273E+02  1152.133   116.580  1022.715   752.409   143.667    19.493   214.366     0.000   377.273     0.769     2.602     0.675     4.011     0.084     1.245   162.795     3.601     0.000 .00000E+00 0.000E+00 0.000E+00 0.000E+00
BIGSUB 120        0 20.3.51977E+02  1157.199   120.207  1037.297   765.327   168.121    44.191   224.576     0.000   344.530     0.375     1.470     0.409     3.940     0.114     0.744   119.702     2.711     0.000 .00000E+00 0.000E+00 0.000E+00 0.000E+00
BIGSUB 121        0 20.3.69059E+02  1150.864   117.184  1022.512   754.018   169.663    46.323   224.713     0.000   347.403     0.404     1.574     0.417     3.626     0.104     0.758   122.426     2.805     0.000 .00000E+00 0.000E+00 0.000E+00 0.000E+00
BIGSUB 122        0 20.3.13184E+03  1172.264   121.505  1037.548   770.587   169.921    60.388   233.892     0.000   338.274     0.268     1.093     0.307     3.882     0.126     0.556   104.038     2.404     0.000 .00000E+00 0.000E+00 0.000E+00 0.000E+00
BIGSUB 123        0 20.3.47215E+02  1157.583   119.472  1022.938   758.996   171.288    60.837   230.639     0.000   335.278     0.258     1.040     0.284     3.780     0.108     0.485   104.292     2.396     0.000 .00000E+00 0.000E+00 0.000E+00 0.000E+00
BIGSUB 124        0 20.3.46326E+02  1151.779   118.329  1026.600   721.571    84.321     0.121   179.337     0.000   428.182     4.053     5.766     1.292     3.847     0.041     2.455   248.844     4.741     0.000 .00000E+00 0.000E+00 0.000E+00 0.000E+00
BIGSUB 125        0 20.3.99109E+02  1151.508   116.677  1022.253   753.732   168.845    49.766   226.640     0.000   345.102     0.318     1.257     0.335     4.014     0.105     0.598   118.178     2.691     0.000 .00000E+00 0.000E+00 0.000E+00 0.000E+00
BIGSUB 126        0 20.3.60294E+02  1152.148   117.977  1026.860   756.382   138.796    13.701   209.341     0.000   378.675     1.031     3.161     0.795     3.975     0.072     1.464   169.257     3.578     0.000 .00000E+00 0.000E+00 0.000E+00 0.000E+00
BIGSUB 127        0 20.3.95675E+02  1145.823   113.163  1021.821   752.724   155.574    26.358   217.356     0.000   363.222     0.644     2.229     0.578     3.746     0.088     1.079   145.715     3.254     0.000 .00000E+00 0.000E+00 0.000E+00 0.000E+00
BIGSUB 128        0 20.3.92288E+02  1146.998   115.300  1026.193   745.916   116.110     4.750   194.388     0.000   392.925     1.729     4.095     0.995     3.728     0.055     1.877   198.510     4.074     0.000 .00000E+00 0.000E+00 0.000E+00 0.000E+00
BIGSUB 129        0 20.3.10380E+03  1146.580   116.575  1026.202   714.640    80.969     0.000   173.066     0.000   429.617     4.475     5.902     1.271     3.748     0.036     2.453   256.551     4.902     0.000 .00000E+00 0.000E+00 0.000E+00 0.000E+00
BIGSUB 130        0 20.3.74558E+02  1146.398   113.261  1021.309   753.102   158.585    28.961   217.522     0.000   360.801     0.500     1.826     0.479     3.710     0.091     0.869   143.113     3.239     0.000 .00000E+00 0.000E+00 0.000E+00 0.000E+00
BIGSUB 131        0 20.3.15440E+03  1148.065   112.804  1021.418   755.426   171.043    63.045   227.802     0.000   326.796     0.223     0.883     0.241     3.981     0.106     0.422    98.634     2.206     0.000 .00000E+00 0.000E+00 0.000E+00 0.000E+00
BIGSUB 132        0 20.3.10758E+03  1146.998   115.362  1025.694   752.126   127.424     7.913   199.651     0.000   383.322     1.294     3.546     0.870     3.846     0.061     1.637   183.627     3.854     0.000 .00000E+00 0.000E+00 0.000E+00 0.000E+00
BIGSUB 133        0 20.3.73436E+02  1146.895   115.743  1021.149   758.782   172.455    61.228   225.618     0.000   324.017     0.226     0.908     0.247     3.710     0.106     0.421    98.051     2.309     0.000 .00000E+00 0.000E+00 0.000E+00 0.000E+00
BIGSUB 134        0 20.3.21515E+03  1142.714   111.422  1020.962   755.369   171.122    50.145   221.495     0.000   333.905     0.276     1.070     0.281     3.896     0.096     0.509   112.124     2.566     0.000 .00000E+00 0.000E+00 0.000E+00 0.000E+00
BIGSUB 135        0 20.3.45757E+02  1141.022   114.282  1025.016   757.355   136.988    11.697   198.992     0.000   368.507     0.949     2.939     0.729     3.633     0.068     1.356   169.447     3.781     0.000 .00000E+00 0.000E+00 0.000E+00 0.000E+00
BIGSUB 136        0 20.3.92515E+02  1143.860   113.906  1020.352   758.853   172.739    60.756   223.187     0.000   321.403     0.234     0.933     0.252     3.686     0.102     0.433    97.869     2.335     0.000 .00000E+00 0.000E+00 0.000E+00 0.000E+00
BIGSUB 137        0 20.3.13378E+03  1141.022   114.341  1024.474   761.858   149.481    18.968   205.029     0.000   356.649     0.733     2.434     0.608     3.664     0.073     1.131   151.512     3.427     0.000 .00000E+00 0.000E+00 0.000E+00 0.000E+00
BIGSUB 138        0 20.3.71124E+02  1131.077   112.963  1009.135   752.315   173.825    51.297   211.183     0.000   324.000     0.259     1.023     0.274     3.742     0.098     0.474   112.525     2.594     0.000 .00000E+00 0.000E+00 0.000E+00 0.000E+00
BIGSUB 139        0 20.3.91214E+02  1135.745   111.970  1008.971   750.499   172.252    52.277   215.629     0.000   329.114     0.277     1.098     0.287     4.244     0.098     0.505   113.187     2.658     0.000 .00000E+00 0.000E+00 0.000E+00 0.000E+00
