1
    SWAT Mar 17 2015    VER 2012/Rev 636_smrt                                                            0/ 0/   0      0: 0: 0

    General Input/Output section (file.cio):                                        
    3/18/2025 12:00:00 AM ARCGIS-SWAT interface AV                                  
                                                                                    


LULC  HRU       GIS  SUB  MGT  MON   AREAkm2  PRECIPmm SNOFALLmm SNOMELTmm     IRRmm     PETmm      ETmm SW_INITmm  SW_ENDmm    PERCmm GW_RCHGmm DA_RCHGmm   REVAPmm  SA_IRRmm  DA_IRRmm   SA_STmm   DA_STmmSURQ_GENmmSURQ_CNTmm   TLOSSmm LATQGENmm    GW_Qmm    WYLDmm   DAILYCN TMP_AVdgC TMP_MXdgC TMP_MNdgCSOL_TMPdgCSOLARMJ/m2  SYLDt/ha  USLEt/haN_APPkg/haP_APPkg/haNAUTOkg/haPAUTOkg/ha NGRZkg/ha PGRZkg/haNCFRTkg/haPCFRTkg/haNRAINkg/ha NFIXkg/ha F-MNkg/ha A-MNkg/ha A-SNkg/ha F-MPkg/haAO-LPkg/ha L-APkg/ha A-SPkg/ha DNITkg/ha  NUPkg/ha  PUPkg/ha ORGNkg/ha ORGPkg/ha SEDPkg/haNSURQkg/haNLATQkg/ha NO3Lkg/haNO3GWkg/ha SOLPkg/ha P_GWkg/ha    W_STRS  TMP_STRS    N_STRS    P_STRS  BIOMt/ha       LAI   YLDt/ha  BACTPct   BACTLPct WTAB CLIm WTAB SOLm     SNOmm CMUPkg/haCMTOTkg/ha   QTILEmm TNO3kg/ha LNO3kg/ha  GW_Q_Dmm LATQCNTmm
BERM    1 000010001    1    0 2003.39329E+02  1322.000   145.277   136.694     0.000  1042.380   788.642    81.355    90.715     0.000     0.000     0.000     0.000     0.000     0.000     0.000     0.000   202.437   203.511     0.000   326.634    80.918   530.145    71.498    11.220    16.805     5.634    12.090    12.654    73.583    57.109     0.000     0.000    98.850     0.000     0.000     0.000     0.000     0.000     0.000     0.000    12.906     5.577    -1.149     3.809     0.957   -21.605   -18.728     0.000    98.604    26.662    19.706     3.058     5.719     2.878     3.977     0.000     0.000     0.023     0.000     0.000    97.468    71.932     0.000     1.384     2.645     0.000 .00000E+00 .00000E+00 0.626E-01 0.404E+04 0.000E+00 0.000E+00 0.000E+00 0.000E+00 0.000E+00 0.398E+01     0.000   326.634
BERM    2 000020001    2    0 2003.13580E+03  1298.800   154.070   144.330     0.000  1041.391   788.153    80.899    90.506     0.000     0.000     0.000     0.000     0.000     0.000     0.000     0.000   180.313   181.401     0.000   322.958   612.143   504.360    70.902    11.220    16.805     5.634    11.914    12.499    51.719    52.523     0.000     0.000   101.713     0.000     0.000     0.000     0.000     0.000     0.000     0.000    13.354     3.438    -0.377     4.169     0.591   -21.443   -18.806     0.000    97.939    26.435    12.738     2.158     5.045     3.599     4.001     0.000     0.000     0.019     0.000     0.000    97.468    70.742     0.000     1.372     2.655     0.000 .00000E+00 .00000E+00 0.642E-01 0.370E+04 0.000E+00 0.000E+00 0.000E+00 0.000E+00 0.000E+00 0.400E+01     0.000   322.958
TUMI    3 000030001    3    0 2003.14611E+03  1277.600   140.800   131.501     0.000  1040.758   660.695   170.807   178.329    48.557    49.050     0.000     0.000     0.000     0.000     0.000     0.000    37.167    37.180     0.000   536.168   675.704   573.348    75.808    11.220    16.805     5.634    11.245    12.615   141.419   544.059     0.000     0.000     0.000     0.000     0.000     0.000     0.000     0.000     0.000     0.000     0.427     3.253    -1.018     0.137     0.558     0.000     0.240     0.000     2.397     0.780     9.857     1.225     3.196     0.001     0.418     0.423     0.000     0.001     0.000     0.000     9.063    66.955     0.000     0.486     0.595     0.349 .00000E+00 .00000E+00 0.844E-02 0.388E+04 0.000E+00 0.000E+00 0.000E+00 0.000E+00 0.000E+00 0.418E+00     0.000   536.168
BERM    4 000040001    4    0 2003.40478E+02  1259.100   169.098   157.861     0.000  1030.548   793.836   141.875   178.993     4.512     3.996     0.000     0.000     0.000     0.000     0.000     0.000   206.830   207.919     0.000   195.017   362.541   402.937    81.638    11.308    16.801     5.815    11.799    12.562     1.625     1.876     0.000     0.000    97.526     0.000     0.000     0.000     0.000     0.000     0.000     0.000    17.231     3.324     0.018     7.079     0.577   -19.783   -17.445     0.000    99.267    26.831     2.325     0.474     1.094     3.402     3.181     0.223     0.000     0.040     0.000     0.000    96.544    69.649     0.000     1.394     2.709     0.000 .00000E+00 .00000E+00 0.938E-01 0.388E+04 0.000E+00 0.000E+00 0.000E+00 0.000E+00 0.000E+00 0.318E+01     0.000   195.017
BERM    5 000050001    5    0 2003.35903E+01  1259.100   169.127   157.891     0.000  1030.338   787.147   128.715   160.676     0.000     0.000     0.000     0.000     0.000     0.000     0.000     0.000   185.441   186.426     0.000   235.307  9533.765   421.733    78.575    11.308    16.801     5.815    11.819    12.562     3.431     2.531     0.000     0.000    98.819     0.000     0.000     0.000     0.000     0.000     0.000     0.000    16.841     3.247    -0.005     6.147     0.563   -20.451   -18.037     0.000    99.090    26.802     3.083     0.620     1.415     3.375     3.600     0.000     0.000     0.043     0.000     0.000    96.544    69.823     0.000     1.392     2.711     0.000 .00000E+00 .00000E+00 0.960E-01 0.388E+04 0.000E+00 0.000E+00 0.000E+00 0.000E+00 0.000E+00 0.360E+01     0.000   235.307
FODB    6 000060001    6    0 2003.35801E+01  1259.100   167.211   156.788     0.000  1030.091   850.766   158.841   180.000   127.451   124.589     0.000     0.000     0.000     0.000     0.000     0.000    27.891    27.891     0.000   239.305 17029.777   267.196    73.674    11.308    16.801     5.815    11.743    12.562     0.051     0.165     0.000     0.000     0.000     0.000     0.000     0.000     0.000     0.000     0.000     0.000     4.693     3.245    -0.692     0.926     0.556    -0.229    -0.083     0.000     5.290     1.448     0.138     0.017     0.042     0.013     0.564     1.140     0.000     0.007     0.000     0.000    98.679    74.462     0.000     5.834     3.935     0.000 .00000E+00 .00000E+00 0.660E-01 0.388E+04 0.000E+00 0.000E+00 0.000E+00 0.000E+00 0.000E+00 0.564E+00     0.000   239.305
BERM    7 000070001    7    0 2003.81622E+02  1253.800   163.833   153.559     0.000   980.024   747.967   117.331   150.258     0.000     0.000     0.000     0.000     0.000     0.000     0.000     0.000   181.178   182.696     0.000   265.939  1602.653   448.636    76.615    10.627    15.749     5.505    11.346    12.716     4.329     3.223     0.000     0.000    99.608     0.000     0.000     0.000     0.000     0.000     0.000     0.000    16.400     3.117    -0.064     5.216     0.539   -20.677   -18.298     0.000    98.142    26.264     3.253     0.638     1.495     3.434     3.855     0.000     0.000     0.027     0.000     0.000    97.376    64.420     0.000     1.353     2.695     0.000 .00000E+00 .00000E+00 0.675E-01 0.388E+04 0.000E+00 0.000E+00 0.000E+00 0.000E+00 0.000E+00 0.386E+01     0.000   265.939
BERM    8 000080001    8    0 2003.37902E+02  1252.900   161.577   151.315     0.000   979.571   763.532   149.715   179.111    28.153    25.573     0.000     0.000     0.000     0.000     0.000     0.000   224.657   226.051     0.000   173.224     0.000   399.275    83.970    10.627    15.749     5.505    11.279    12.689     1.030     0.799     0.000     0.000    95.331     0.000     0.000     0.000     0.000     0.000     0.000     0.000    17.386     3.310     0.010     7.652     0.575   -19.015   -16.817     0.000    98.681    26.439     1.684     0.367     0.748     3.352     2.683     0.683     0.000     0.044     0.000     0.000    97.376    64.936     0.000     1.362     2.694     0.000 .00000E+00 .00000E+00 0.689E-01 0.388E+04 0.000E+00 0.000E+00 0.000E+00 0.000E+00 0.000E+00 0.268E+01     0.000   173.224
TUMI    9 000090001    9    0 2003.50283E+02  1261.000   133.500   124.451     0.000   979.470   634.164   173.273   178.516    53.242    53.456     0.000     0.000     0.000     0.000     0.000     0.000    54.451    54.457     0.000   505.058  3089.525   559.515    77.294    10.627    15.749     5.505    10.844    12.621   182.301   294.399     0.000     0.000     0.000     0.000     0.000     0.000     0.000     0.000     0.000     0.000     0.421     3.172    -0.981     0.135     0.544     0.007     0.253     0.000     2.414     0.788    11.223     1.396     3.691     0.002     0.395     0.426     0.000     0.001     0.000     0.000     9.077    66.176     0.000     0.489     0.601     0.348 .00000E+00 .00000E+00 0.124E-01 0.388E+04 0.000E+00 0.000E+00 0.000E+00 0.000E+00 0.000E+00 0.395E+00     0.000   505.058
TUMI   10 000100001   10    0 2003.47997E+02  1261.000   133.500   124.468     0.000   978.721   641.204   174.022   178.521   106.285   106.335     0.000     0.000     0.000     0.000     0.000     0.000    56.730    56.731     0.000   443.173  1922.473   499.904    77.605    10.627    15.749     5.505    10.845    12.620   113.050   206.245     0.000     0.000     0.000     0.000     0.000     0.000     0.000     0.000     0.000     0.000     0.406     3.178    -0.993     0.128     0.545     0.035     0.257     0.000     2.172     0.708    14.684     1.820     4.723     0.002     0.365     0.669     0.000     0.002     0.000     0.000     9.077    68.122     0.000     0.440     0.572     0.313 .00000E+00 .00000E+00 0.122E-01 0.388E+04 0.000E+00 0.000E+00 0.000E+00 0.000E+00 0.000E+00 0.365E+00     0.000   443.173
TUMI   11 000110001   11    0 2003.53852E+02  1271.100   136.200   127.176     0.000   978.358   630.330   173.794   178.524    93.194    94.129     0.000     0.000     0.000     0.000     0.000     0.000    53.370    53.373     0.000   472.333  1623.354   525.706    77.501    10.627    15.749     5.505    10.850    12.675   108.600   263.895     0.000     0.000     0.000     0.000     0.000     0.000     0.000     0.000     0.000     0.000     0.414     3.180    -0.988     0.132     0.545    -0.008     0.226     0.000     2.265     0.741    11.637     1.446     3.744     0.001     0.375     0.596     0.000     0.002     0.000     0.000     9.077    67.558     0.000     0.460     0.582     0.327 .00000E+00 .00000E+00 0.864E-02 0.388E+04 0.000E+00 0.000E+00 0.000E+00 0.000E+00 0.000E+00 0.375E+00     0.000   472.333
TUMI   12 000120001   12    0 2003.25271E+01  1271.100   136.200   127.183     0.000   978.055   636.200   174.349   178.526   159.588   160.670     0.000     0.000     0.000     0.000     0.000     0.000    54.052    54.052     0.000   401.543     0.000   455.596    77.732    10.627    15.749     5.505    10.851    12.675    80.242   132.496     0.000     0.000     0.000     0.000     0.000     0.000     0.000     0.000     0.000     0.000     0.409     3.191    -0.992     0.129     0.547     0.006     0.222     0.000     2.086     0.682    14.238     1.765     4.507     0.001     0.331     0.857     0.000     0.003     0.000     0.000     9.077    69.138     0.000     0.424     0.564     0.301 .00000E+00 .00000E+00 0.850E-02 0.388E+04 0.000E+00 0.000E+00 0.000E+00 0.000E+00 0.000E+00 0.331E+00     0.000   401.543
TUBG   13 000130001   13    0 2003.22422E+01  1271.000   127.600   118.585     0.000   977.966   633.171   175.002   178.541   252.009   251.009     0.000     0.000     0.000     0.000     0.000     0.000    61.469    61.469     0.000   307.885 15315.568   369.354    77.959    10.627    15.749     5.505    10.888    12.743    35.199    37.171     0.000     0.000     0.000     0.000     0.000     0.000     0.000     0.000     0.000     0.000     0.396     3.202    -0.999     0.125     0.549    -0.022     0.162     0.000     1.941     0.633    16.533     2.046     5.151     0.001     0.253     1.150     0.000     0.006     0.000     0.000     9.077    71.139     0.000     0.394     0.553     0.280 .00000E+00 .00000E+00 0.907E-02 0.388E+04 0.000E+00 0.000E+00 0.000E+00 0.000E+00 0.000E+00 0.253E+00     0.000   307.885
TUWO   14 000140001   14    0 2003.13292E+03  1281.600   128.600   119.584     0.000   977.020   628.510   174.576   178.533   128.647   129.239     0.000     0.000     0.000     0.000     0.000     0.000    61.640    61.785     0.000   435.735   253.454   497.520    77.778    10.627    15.749     5.505    10.840    12.518    68.037   195.578     0.000     0.000     0.000     0.000     0.000     0.000     0.000     0.000     0.000     0.000     0.430     3.188    -0.985     0.137     0.546     0.035     0.241     0.000     2.197     0.719    18.027     2.235     5.687     0.001     0.358     0.751     0.000     0.004     0.000     0.000     9.077    69.202     0.000     0.448     0.620     0.319 .00000E+00 .00000E+00 0.768E-02 0.388E+04 0.000E+00 0.000E+00 0.000E+00 0.000E+00 0.000E+00 0.358E+00     0.000   435.735
BERM   15 000150001   15    0 2003.10831E+02  1291.400   151.954   141.730     0.000   976.171   764.592   152.148   179.123    34.582    31.934    18.292    23.233     0.000     0.000   960.526  2043.682   240.620   240.839     0.000   163.394     0.000   404.414    84.778    10.627    15.749     5.505    11.258    12.565     1.414     0.462     0.000     0.000    89.828     0.000     0.000     0.000     0.000     0.000     0.000     0.000    17.364     3.354     0.036     6.652     0.581   -19.675   -17.492     0.000    98.705    26.312     2.166     0.433     0.954     2.029     1.809     0.419     0.000     0.049     0.000     0.000    97.376    66.400     0.000     1.356     2.691     0.000 .00000E+00 .00000E+00 0.626E-01 0.388E+04 0.000E+00 0.000E+00 0.000E+00 0.000E+00 0.000E+00 0.181E+01     0.000   163.394
BERM   16 000160001   16    0 2003.49593E+02  1306.900   176.375   166.516     0.000   963.960   742.818   158.298   179.657    85.989    80.385    46.045    22.942     0.000     0.000   998.676  2093.690   267.412   268.230     0.000   132.525  2301.397   401.213    86.270     9.669    14.937     4.401    10.396    12.380     0.648     0.359     0.000     0.000    87.290     0.000     0.000     0.000     0.000     0.000     0.000     0.000    17.734     3.286     0.068     6.046     0.568   -19.214   -17.148     0.000    96.989    25.273     1.403     0.268     0.577     2.567     0.936     1.203     0.000     0.046     0.000     0.000    97.384    56.130     0.000     1.266     2.742     0.000 .00000E+00 .00000E+00 0.626E-01 0.388E+04 0.000E+00 0.000E+00 0.000E+00 0.000E+00 0.000E+00 0.936E+00     0.000   132.525
TUWO   17 000170001   17    0 2003.14826E+03  1278.700   128.000   118.932     0.000   977.674   631.476   174.661   178.528   155.795   155.323    88.969    23.269     0.000     0.000  1072.708  2192.749    60.470    60.516     0.000   405.800   245.051   467.201    77.771    10.627    15.749     5.505    10.827    12.451    74.518   124.761     0.000     0.000     0.000     0.000     0.000     0.000     0.000     0.000     0.000     0.000     0.416     3.182    -0.987     0.132     0.545     0.059     0.251     0.000     2.101     0.685    21.065     2.610     6.628     0.001     0.338     0.864     0.000     0.004     0.000     0.000     9.077    69.808     0.000     0.427     0.612     0.303 .00000E+00 .00000E+00 0.787E-02 0.388E+04 0.000E+00 0.000E+00 0.000E+00 0.000E+00 0.000E+00 0.338E+00     0.000   405.800
BERM   18 000180001   18    0 2003.67887E+02  1317.400   168.755   158.911     0.000   963.418   736.517   155.415   179.555    62.441    57.368    32.860    22.929     0.000     0.000   976.210  2063.813   281.777   281.945     0.000   148.731  2737.353   431.003    85.733     9.669    14.937     4.401    10.443    12.561     1.034     0.634     0.000     0.000    87.993     0.000     0.000     0.000     0.000     0.000     0.000     0.000    17.561     3.273     0.054     5.614     0.566   -19.688   -17.572     0.000    97.034    25.444     1.836     0.343     0.770     2.831     1.068     0.795     0.000     0.042     0.000     0.000    97.384    58.831     0.000     1.274     2.698     0.000 .00000E+00 .00000E+00 0.626E-01 0.388E+04 0.000E+00 0.000E+00 0.000E+00 0.000E+00 0.000E+00 0.107E+01     0.000   148.731
BERM   19 000190001   19    0 2003.18573E+00  1278.700   152.699   142.441     0.000   977.347   757.388   126.489   172.415     0.000     0.000     0.000    23.261     0.000     0.000   928.555  2001.357   198.595   198.585     0.000   226.673 64924.066   425.258    78.915    10.627    15.749     5.505    11.308    12.451     2.297     1.360     0.000     0.000    92.991     0.000     0.000     0.000     0.000     0.000     0.000     0.000    17.174     3.200     0.033     6.671     0.555   -19.492   -17.288     0.000    98.413    26.162     2.999     0.537     0.934     2.466     2.767     0.000     0.000     0.070     0.000     0.000    97.376    64.586     0.000     1.349     2.706     0.000 .00000E+00 .00000E+00 0.648E-01 0.388E+04 0.000E+00 0.000E+00 0.000E+00 0.000E+00 0.000E+00 0.277E+01     0.000   226.673
BERM   20 000200001   20    0 2003.14568E+01  1278.700   152.673   142.419     0.000   977.248   768.212   153.876   179.118    48.972    45.673    26.161    23.259     0.000     0.000   972.075  2059.118   232.853   232.788     0.000   147.316 18903.578   380.365    85.029    10.627    15.749     5.505    11.245    12.451     0.852     0.381     0.000     0.000    90.404     0.000     0.000     0.000     0.000     0.000     0.000     0.000    17.598     3.360     0.053     7.291     0.582   -19.096   -16.958     0.000    98.642    26.198     1.665     0.336     0.613     2.130     1.907     0.855     0.000     0.063     0.000     0.000    97.376    64.384     0.000     1.350     2.703     0.000 .00000E+00 .00000E+00 0.669E-01 0.388E+04 0.000E+00 0.000E+00 0.000E+00 0.000E+00 0.000E+00 0.191E+01     0.000   147.316
TUWO   21 000210001   21    0 2003.96526E+02  1283.300   133.200   124.201     0.000   977.262   627.405   174.465   178.531   121.738   123.495    70.738    23.259     0.000     0.000  1039.102  2148.098    59.500    59.515     0.000   449.298   970.838   509.517    77.724    10.627    15.749     5.505    10.839    12.537    90.518   164.350     0.000     0.000     0.000     0.000     0.000     0.000     0.000     0.000     0.000     0.000     0.423     3.186    -0.986     0.135     0.546     0.036     0.250     0.000     2.202     0.721    17.562     2.177     5.578     0.001     0.361     0.711     0.000     0.003     0.000     0.000     9.077    68.605     0.000     0.449     0.621     0.319 .00000E+00 .00000E+00 0.739E-02 0.388E+04 0.000E+00 0.000E+00 0.000E+00 0.000E+00 0.000E+00 0.361E+00     0.000   449.298
BERM   22 000220001   22    0 2003.33778E+02  1317.400   168.786   158.957     0.000   962.942   731.931   147.387   179.499    24.180    20.544    11.768    22.918     0.000     0.000   945.499  2022.996   265.458   265.793     0.000   192.341  1798.210   458.251    84.171     9.669    14.937     4.401    10.472    12.561     2.122     1.358     0.000     0.000    88.612     0.000     0.000     0.000     0.000     0.000     0.000     0.000    17.169     3.217     0.025     5.276     0.556   -19.887   -17.728     0.000    96.920    25.428     2.568     0.490     1.092     2.929     1.327     0.073     0.000     0.039     0.000     0.000    97.384    58.942     0.000     1.273     2.700     0.000 .00000E+00 .00000E+00 0.626E-01 0.388E+04 0.000E+00 0.000E+00 0.000E+00 0.000E+00 0.000E+00 0.133E+01     0.000   192.341
BERM   23 000230001   23    0 2003.67360E+01  1276.500   148.092   138.654     0.000   991.133   777.739   162.173   179.179    99.348    94.651    54.216    23.589     0.000     0.000  1006.819  2106.245   248.102   247.360     0.000   111.738 10109.525   359.637    86.054    10.543    15.861     5.225    11.079    12.384     0.288     0.245     0.000     0.000    91.024     0.000     0.000     0.000     0.000     0.000     0.000     0.000    17.852     3.396     0.074     7.258     0.588   -18.771   -16.699     0.000    98.527    25.776     0.799     0.178     0.298     3.085     1.359     1.897     0.000     0.060     0.000     0.000    98.516    61.776     0.000     1.323     2.662     0.000 .00000E+00 .00000E+00 0.886E-01 0.388E+04 0.000E+00 0.000E+00 0.000E+00 0.000E+00 0.000E+00 0.136E+01     0.000   111.738
BERM   24 000240001   24    0 2003.61572E+02  1295.500   160.612   150.441     0.000   976.405   769.283   155.894   179.121    45.863    42.574    24.386    23.238     0.000     0.000   969.191  2055.206   243.194   243.929     0.000   155.161  1170.517   399.333    85.607    10.627    15.749     5.505    11.220    12.389     1.149     0.675     0.000     0.000    89.049     0.000     0.000     0.000     0.000     0.000     0.000     0.000    17.421     3.369     0.033     6.584     0.584   -19.683   -17.479     0.000    98.276    26.269     1.927     0.379     0.856     1.773     1.816     0.621     0.000     0.042     0.000     0.000    97.376    64.912     0.000     1.354     2.750     0.000 .00000E+00 .00000E+00 0.626E-01 0.388E+04 0.000E+00 0.000E+00 0.000E+00 0.000E+00 0.000E+00 0.182E+01     0.000   155.161
BERM   25 000250001   25    0 2003.70143E+02  1322.600   158.125   149.215     0.000   962.312   729.942   137.352   179.497    12.218     9.208     5.274    22.903     0.000     0.000   934.459  2008.281   250.354   249.853     0.000   215.191  1157.707   465.096    81.893     9.669    14.937     4.401    10.453    12.414     2.503     1.782     0.000     0.000    87.674     0.000     0.000     0.000     0.000     0.000     0.000     0.000    17.049     3.174     0.040     5.061     0.549   -19.760   -17.628     0.000    96.481    25.132     2.778     0.523     1.201     2.026     1.552     0.041     0.000     0.034     0.000     0.000    97.384    57.407     0.000     1.259     2.692     0.000 .00000E+00 .00000E+00 0.626E-01 0.388E+04 0.000E+00 0.000E+00 0.000E+00 0.000E+00 0.000E+00 0.155E+01     0.000   215.191
BERM   26 000260001   26    0 2003.89333E+02  1283.700   147.512   139.160     0.000   990.766   769.519   149.506   179.087    15.820    13.374     7.661    23.580     0.000     0.000   936.534  2012.907   236.293   235.632     0.000   193.513  1185.463   429.221    83.878    10.543    15.861     5.225    11.102    12.331     1.640     1.390     0.000     0.000    91.416     0.000     0.000     0.000     0.000     0.000     0.000     0.000    17.252     3.287     0.028     6.589     0.570   -19.241   -17.089     0.000    98.159    25.832     2.080     0.437     0.960     2.101     2.322     0.135     0.000     0.039     0.000     0.000    98.516    62.186     0.000     1.326     2.654     0.000 .00000E+00 .00000E+00 0.747E-01 0.388E+04 0.000E+00 0.000E+00 0.000E+00 0.000E+00 0.000E+00 0.232E+01     0.000   193.513
TUMI   27 000270001   27    0 2003.55870E+01  1333.000   131.100   122.462     0.000   961.827   616.851   175.998   180.847   105.655   104.115    59.637    22.891     0.000     0.000  1009.797  2108.243    88.718    88.739     0.000   460.854  1361.564   550.186    78.344     9.669    14.937     4.401    10.015    12.347   258.013   168.180     0.000     0.000     0.000     0.000     0.000     0.000     0.000     0.000     0.000     0.000     0.458     3.053    -0.924     0.146     0.523     0.037     0.237     0.000     2.370     0.775    24.325     3.022     7.773     0.001     0.342     0.586     0.000     0.003     0.000     0.000     7.541    68.071     0.000     0.482     0.620     0.339 .00000E+00 .00000E+00 0.898E-02 0.388E+04 0.000E+00 0.000E+00 0.000E+00 0.000E+00 0.000E+00 0.342E+00     0.000   460.854
BERM   28 000280001   28    0 2003.16286E+02  1252.900   161.582   151.318     0.000   979.654   750.127   116.766   149.840     0.000     0.000     0.000    23.316     0.000     0.000   927.362  2000.000   188.610   189.959     0.000   258.204   723.076   448.162    76.471    10.627    15.749     5.505    11.348    12.689     3.626     1.950     0.000     0.000    99.044     0.000     0.000     0.000     0.000     0.000     0.000     0.000    16.549     3.114    -0.049     5.766     0.540   -20.379   -18.026     0.000    98.361    26.387     2.946     0.613     1.318     3.404     3.696     0.000     0.000     0.034     0.000     0.000    97.376    64.918     0.000     1.360     2.695     0.000 .00000E+00 .00000E+00 0.680E-01 0.388E+04 0.000E+00 0.000E+00 0.000E+00 0.000E+00 0.000E+00 0.370E+01     0.000   258.204
BERM   29 000290001   29    0 2003.84670E+02  1311.900   199.962   188.513     0.000   964.109   744.718   157.311   179.516    64.756    59.501    34.082    22.946     0.000     0.000   983.970  2074.178   263.898   264.201     0.000   154.301  2365.529   418.841    86.214     9.669    14.937     4.401    10.384    12.316     1.031     0.684     0.000     0.000    85.782     0.000     0.000     0.000     0.000     0.000     0.000     0.000    17.598     3.281     0.047     5.567     0.567   -19.511   -17.396     0.000    96.830    25.233     1.839     0.339     0.775     1.224     1.145     0.759     0.000     0.041     0.000     0.000    97.384    56.280     0.000     1.261     2.712     0.000 .00000E+00 .00000E+00 0.626E-01 0.388E+04 0.000E+00 0.000E+00 0.000E+00 0.000E+00 0.000E+00 0.115E+01     0.000   154.301
BERM   30 000300001   30    0 2003.20923E+02  1322.700   187.637   176.206     0.000   963.573   741.883   158.188   179.675    91.216    85.028    48.704    22.933     0.000     0.000  1001.700  2097.665   284.292   284.285     0.000   125.697  2498.689   410.466    86.248     9.669    14.937     4.401    10.410    12.529     0.692     0.375     0.000     0.000    85.799     0.000     0.000     0.000     0.000     0.000     0.000     0.000    17.737     3.295     0.068     5.800     0.569   -19.398   -17.313     0.000    97.122    25.266     1.524     0.290     0.621     1.829     0.879     1.269     0.000     0.050     0.000     0.000    97.384    56.598     0.000     1.266     2.700     0.000 .00000E+00 .00000E+00 0.626E-01 0.388E+04 0.000E+00 0.000E+00 0.000E+00 0.000E+00 0.000E+00 0.879E+00     0.000   125.697
BERM   31 000310001   31    0 2003.77724E+02  1283.700   147.537   139.202     0.000   990.123   763.124   131.359   173.220     0.000     0.000     0.000    23.565     0.000     0.000   926.858  2000.000   213.525   212.986     0.000   237.249  1462.814   450.235    79.698    10.543    15.861     5.225    11.114    12.331     3.121     3.145     0.000     0.000    92.989     0.000     0.000     0.000     0.000     0.000     0.000     0.000    16.741     3.191     0.014     4.982     0.552   -20.428   -18.152     0.000    97.967    25.803     2.904     0.554     1.325     2.060     2.730     0.000     0.000     0.031     0.000     0.000    98.516    62.402     0.000     1.324     2.655     0.000 .00000E+00 .00000E+00 0.715E-01 0.388E+04 0.000E+00 0.000E+00 0.000E+00 0.000E+00 0.000E+00 0.273E+01     0.000   237.249
BERM   32 000320001   32    0 2003.44429E+02  1263.400   159.998   149.742     0.000   979.355   748.622   109.238   141.371     0.000     0.000     0.000    23.309     0.000     0.000   927.384  2000.000   176.391   176.263     0.000   276.056  1725.267   452.319    74.715    10.627    15.749     5.505    11.314    12.542     6.335     3.005     0.000     0.000    98.862     0.000     0.000     0.000     0.000     0.000     0.000     0.000    16.123     3.080    -0.063     4.145     0.532   -21.419   -19.006     0.000    97.874    26.172     3.963     0.711     1.820     3.339     3.729     0.000     0.000     0.026     0.000     0.000    97.376    64.134     0.000     1.349     2.700     0.000 .00000E+00 .00000E+00 0.659E-01 0.388E+04 0.000E+00 0.000E+00 0.000E+00 0.000E+00 0.000E+00 0.373E+01     0.000   276.056
BERM   33 000330001   33    0 2003.66729E+02  1260.700   159.304   149.226     0.000  1039.611   797.108   131.385   165.017     0.000     0.000     0.000    24.743     0.000     0.000   923.020  2000.495   190.565   191.844     0.000   216.830   539.361   408.673    79.206    11.220    16.805     5.634    11.743    12.606     2.988     2.538     0.000     0.000    97.853     0.000     0.000     0.000     0.000     0.000     0.000     0.000    16.915     3.249     0.004     6.722     0.565   -19.902   -17.560     0.000    98.876    26.683     2.966     0.625     1.526     3.291     3.410     0.000     0.000     0.035     0.000     0.000    97.468    70.026     0.000     1.385     2.654     0.000 .00000E+00 .00000E+00 0.809E-01 0.388E+04 0.000E+00 0.000E+00 0.000E+00 0.000E+00 0.000E+00 0.341E+01     0.000   216.830
BERM   34 000340001   34    0 2003.14981E+02  1322.700   187.638   176.212     0.000   963.383   741.013   156.778   179.591    75.770    70.156    40.185    22.929     0.000     0.000   988.806  2080.528   281.419   281.541     0.000   139.424   646.358   421.365    86.036     9.669    14.937     4.401    10.415    12.529     0.984     0.491     0.000     0.000    86.001     0.000     0.000     0.000     0.000     0.000     0.000     0.000    17.620     3.278     0.058     5.697     0.567   -19.452   -17.353     0.000    97.083    25.259     1.852     0.349     0.755     1.878     0.973     0.997     0.000     0.049     0.000     0.000    97.384    56.621     0.000     1.265     2.700     0.000 .00000E+00 .00000E+00 0.626E-01 0.388E+04 0.000E+00 0.000E+00 0.000E+00 0.000E+00 0.000E+00 0.973E+00     0.000   139.424
BERM   35 000350001   35    0 2003.44025E+02  1328.800   166.413   156.596     0.000   962.507   735.463   148.270   179.498    26.248    22.517    12.898    22.908     0.000     0.000   946.911  2024.829   268.710   268.270     0.000   189.992   844.733   458.390    84.547     9.669    14.937     4.401    10.485    12.414     1.939     1.248     0.000     0.000    87.173     0.000     0.000     0.000     0.000     0.000     0.000     0.000    17.238     3.220     0.036     5.234     0.557   -19.685   -17.557     0.000    96.400    25.179     2.501     0.471     1.061     2.284     1.381     0.063     0.000     0.038     0.000     0.000    97.384    58.022     0.000     1.261     2.726     0.000 .00000E+00 .00000E+00 0.626E-01 0.388E+04 0.000E+00 0.000E+00 0.000E+00 0.000E+00 0.000E+00 0.138E+01     0.000   189.992
BERM   36 000360001   36    0 2003.42915E+02  1263.400   159.995   149.745     0.000   979.176   751.830   123.128   163.212     0.000     0.000     0.000    23.304     0.000     0.000   927.398  2000.000   188.039   187.965     0.000   246.462  1939.223   434.426    78.064    10.627    15.749     5.505    11.294    12.542     3.420     1.957     0.000     0.000    98.103     0.000     0.000     0.000     0.000     0.000     0.000     0.000    16.717     3.160    -0.049     6.177     0.548   -19.909   -17.649     0.000    98.144    26.216     2.765     0.589     1.274     3.384     3.534     0.000     0.000     0.032     0.000     0.000    97.376    63.948     0.000     1.351     2.700     0.000 .00000E+00 .00000E+00 0.660E-01 0.388E+04 0.000E+00 0.000E+00 0.000E+00 0.000E+00 0.000E+00 0.353E+01     0.000   246.462
BERM   37 000370001   37    0 2003.90875E+02  1292.800   178.585   168.242     0.000   975.038   747.382   141.650   179.480    14.161    10.987     6.294    23.206     0.000     0.000   934.168  2009.069   232.283   231.931     0.000   192.642  1201.953   424.635    82.966     9.611    15.027     4.195    10.380    12.252     2.302     1.686     0.000     0.000    87.552     0.000     0.000     0.000     0.000     0.000     0.000     0.000    17.185     3.137     0.036     5.290     0.543   -19.430   -17.315     0.000    97.172    24.962     2.503     0.485     1.083     1.468     1.473     0.043     0.000     0.033     0.000     0.000    98.637    53.995     0.000     1.240     2.631     0.000 .00000E+00 .00000E+00 0.626E-01 0.388E+04 0.000E+00 0.000E+00 0.000E+00 0.000E+00 0.000E+00 0.147E+01     0.000   192.642
BERM   38 000380001   38    0 2003.14134E+03  1328.900   155.017   145.646     0.000   961.825   743.279   148.031   179.499    30.925    26.848    15.379    22.891     0.000     0.000   947.694  2025.803   261.948   260.059     0.000   182.647   754.649   442.859    84.507     9.669    14.937     4.401    10.491    12.386     1.791     1.113     0.000     0.000    87.957     0.000     0.000     0.000     0.000     0.000     0.000     0.000    17.241     3.228     0.064     4.711     0.558   -20.051   -17.893     0.000    96.707    25.141     2.491     0.442     1.063     2.595     1.371     0.077     0.000     0.033     0.000     0.000    97.384    57.874     0.000     1.260     2.700     0.000 .00000E+00 .00000E+00 0.626E-01 0.388E+04 0.000E+00 0.000E+00 0.000E+00 0.000E+00 0.000E+00 0.137E+01     0.000   182.647
BERM   39 000390001   39    0 2003.21721E+00  1324.500   161.358   151.483     0.000   972.801   739.738    99.142   145.843     0.000     0.000     0.000    23.153     0.000     0.000   927.502  2000.000   202.473   202.512     0.000   270.180 10318.439   472.692    72.932     9.611    15.027     4.195    10.589    12.379    10.047     6.535     0.000     0.000    89.845     0.000     0.000     0.000     0.000     0.000     0.000     0.000    16.261     2.941     0.081     4.164     0.508   -20.271   -18.085     0.000    95.918    24.943     5.477     0.902     2.036     2.107     2.087     0.000     0.000     0.062     0.000     0.000    98.637    56.260     0.000     1.238     2.700     0.000 .00000E+00 .00000E+00 0.626E-01 0.388E+04 0.000E+00 0.000E+00 0.000E+00 0.000E+00 0.000E+00 0.209E+01     0.000   270.180
BERM   40 000400001   40    0 2003.31509E+02  1278.200   174.764   165.918     0.000  1015.633   783.748   150.294   179.432    16.855    14.195     8.131    24.172     0.000     0.000   943.008  2024.143   231.649   232.323     0.000   183.611    99.171   416.014    84.255    10.130    15.779     4.481    10.764    12.450     2.031     1.264     0.000     0.000    88.907     0.000     0.000     0.000     0.000     0.000     0.000     0.000    17.162     3.233     0.003     4.799     0.558   -19.915   -17.718     0.000    96.655    25.098     2.606     0.470     1.100     2.079     1.892     0.188     0.000     0.036     0.000     0.000   100.382    60.075     1.000     1.266     2.604     0.000 .00000E+00 .00000E+00 0.758E-01 0.388E+04 0.000E+00 0.000E+00 0.000E+00 0.000E+00 0.000E+00 0.189E+01     0.000   183.611
BERM   41 000410001   41    0 2003.26520E+02  1328.800   166.425   156.616     0.000   962.222   729.881   135.252   179.498    10.037     7.247     4.151    22.901     0.000     0.000   932.971  2006.294   247.149   246.915     0.000   225.425   734.736   472.381    81.487     9.669    14.937     4.401    10.522    12.414     2.901     2.557     0.000     0.000    88.096     0.000     0.000     0.000     0.000     0.000     0.000     0.000    16.967     3.159     0.020     5.111     0.547   -19.743   -17.605     0.000    96.252    25.158     2.940     0.565     1.261     2.150     1.654     0.034     0.000     0.037     0.000     0.000    97.384    58.146     0.000     1.260     2.726     0.000 .00000E+00 .00000E+00 0.626E-01 0.388E+04 0.000E+00 0.000E+00 0.000E+00 0.000E+00 0.000E+00 0.165E+01     0.000   225.425
BERM   42 000420001   42    0 2003.33460E+02  1324.500   161.493   151.625     0.000   972.533   754.654   146.556   179.487    34.646    30.010    17.190    23.146     0.000     0.000   950.438  2030.422   249.222   248.541     0.000   168.789   714.699   417.500    84.271     9.611    15.027     4.195    10.436    12.379     1.556     1.050     0.000     0.000    86.144     0.000     0.000     0.000     0.000     0.000     0.000     0.000    17.450     3.201     0.084     4.926     0.553   -19.867   -17.746     0.000    96.824    25.101     2.278     0.416     0.962     1.522     1.236     0.074     0.000     0.038     0.000     0.000    98.637    55.836     0.000     1.247     2.711     0.000 .00000E+00 .00000E+00 0.672E-01 0.388E+04 0.000E+00 0.000E+00 0.000E+00 0.000E+00 0.000E+00 0.124E+01     0.000   168.789
BERM   43 000430001   43    0 2003.91389E+02  1322.700   187.637   176.224     0.000   962.993   739.109   153.780   179.497    51.164    46.472    26.619    22.919     0.000     0.000   968.340  2053.323   275.338   274.394     0.000   162.848  1013.962   437.507    85.546     9.669    14.937     4.401    10.427    12.529     1.205     1.059     0.000     0.000    86.370     0.000     0.000     0.000     0.000     0.000     0.000     0.000    17.500     3.254     0.053     5.517     0.562   -19.561   -17.444     0.000    97.038    25.252     2.078     0.378     0.881     1.944     1.136     0.562     0.000     0.040     0.000     0.000    97.384    56.654     0.000     1.265     2.699     0.000 .00000E+00 .00000E+00 0.626E-01 0.388E+04 0.000E+00 0.000E+00 0.000E+00 0.000E+00 0.000E+00 0.114E+01     0.000   162.848
BERM   44 000440001   44    0 2003.58006E+02  1278.200   174.760   165.927     0.000  1015.064   785.433   154.288   179.434    34.061    30.847    17.669    24.159     0.000     0.000   957.986  2043.969   238.407   239.059     0.000   163.932  1617.002   403.167    84.963    10.130    15.779     4.481    10.754    12.450     1.520     0.906     0.000     0.000    88.592     0.000     0.000     0.000     0.000     0.000     0.000     0.000    17.334     3.261     0.021     4.845     0.563   -19.907   -17.720     0.000    96.719    25.107     2.317     0.409     0.979     2.104     1.724     0.539     0.000     0.037     0.000     0.000   100.382    60.045     1.000     1.267     2.603     0.000 .00000E+00 .00000E+00 0.770E-01 0.388E+04 0.000E+00 0.000E+00 0.000E+00 0.000E+00 0.000E+00 0.172E+01     0.000   163.932
BERM   45 000450001   45    0 2003.11351E+03  1301.800   173.358   163.037     0.000   974.316   751.355   151.375   179.481    39.875    35.705    20.452    23.189     0.000     0.000   953.347  2034.459   253.745   255.390     0.000   161.775  1146.422   417.368    84.901     9.611    15.027     4.195    10.331    12.211     1.367     0.826     0.000     0.000    89.256     0.000     0.000     0.000     0.000     0.000     0.000     0.000    17.522     3.194     0.065     5.311     0.552   -19.413   -17.315     0.000    97.124    24.931     2.044     0.379     0.870     2.603     1.446     0.385     0.000     0.037     0.000     0.000    98.637    52.479     0.000     1.238     2.677     0.000 .00000E+00 .00000E+00 0.626E-01 0.388E+04 0.000E+00 0.000E+00 0.000E+00 0.000E+00 0.000E+00 0.145E+01     0.000   161.775
BERM   46 000460001   46    0 2003.15709E+01  1291.400   151.980   141.753     0.000   976.284   767.225   159.178   179.179    88.489    84.406    48.348    23.236     0.000     0.000  1006.496  2104.718   253.130   253.346     0.000   113.835  6078.062   367.661    85.989    10.627    15.749     5.505    11.238    12.566     0.486     0.253     0.000     0.000    91.392     0.000     0.000     0.000     0.000     0.000     0.000     0.000    17.749     3.415     0.067     7.130     0.591   -19.398   -17.264     0.000    98.869    26.340     1.319     0.262     0.458     3.335     1.400     1.593     0.000     0.069     0.000     0.000    97.376    66.120     0.000     1.358     2.693     0.000 .00000E+00 .00000E+00 0.626E-01 0.388E+04 0.000E+00 0.000E+00 0.000E+00 0.000E+00 0.000E+00 0.140E+01     0.000   113.835
BERM   47 000470001   47    0 2003.53704E+02  1324.500   161.297   151.444     0.000   972.025   755.866   150.221   179.500    51.307    45.972    26.333    23.134     0.000     0.000   963.412  2047.596   256.630   255.224     0.000   150.400   442.394   405.886    85.044     9.611    15.027     4.195    10.414    12.379     1.036     0.755     0.000     0.000    85.562     0.000     0.000     0.000     0.000     0.000     0.000     0.000    17.683     3.227     0.097     5.040     0.558   -19.809   -17.696     0.000    96.938    25.110     1.847     0.334     0.780     1.421     1.071     0.329     0.000     0.040     0.000     0.000    98.637    55.624     0.000     1.247     2.693     0.000 .00000E+00 .00000E+00 0.627E-01 0.388E+04 0.000E+00 0.000E+00 0.000E+00 0.000E+00 0.000E+00 0.107E+01     0.000   150.400
BERM   48 000480001   48    0 2003.10704E+02  1296.200   173.383   163.071     0.000   974.005   747.337   151.534   179.482    41.231    36.609    20.969    23.181     0.000     0.000   953.932  2035.203   249.436   249.664     0.000   161.066  3508.686   410.938    85.021     9.611    15.027     4.195    10.353    12.364     1.531     0.658     0.000     0.000    86.603     0.000     0.000     0.000     0.000     0.000     0.000     0.000    17.511     3.194     0.063     5.357     0.552   -19.369   -17.258     0.000    96.603    24.930     2.142     0.410     0.884     2.035     1.120     0.357     0.000     0.045     0.000     0.000    98.637    54.866     0.000     1.238     2.701     0.000 .00000E+00 .00000E+00 0.658E-01 0.388E+04 0.000E+00 0.000E+00 0.000E+00 0.000E+00 0.000E+00 0.112E+01     0.000   161.066
BERM   49 000490001   49    0 2003.38162E+02  1302.400   174.288   164.414     0.000   964.478   743.237   155.368   179.500    58.328    53.903    30.876    22.955     0.000     0.000   974.981  2062.283   256.475   257.189     0.000   158.372  1748.624   415.868    85.714     9.669    14.937     4.401    10.399    12.393     1.177     0.538     0.000     0.000    87.833     0.000     0.000     0.000     0.000     0.000     0.000     0.000    17.585     3.248     0.053     5.471     0.561   -19.674   -17.545     0.000    96.904    25.326     2.037     0.379     0.838     2.531     1.092     0.677     0.000     0.042     0.000     0.000    97.384    57.157     0.000     1.265     2.735     0.000 .00000E+00 .00000E+00 0.626E-01 0.388E+04 0.000E+00 0.000E+00 0.000E+00 0.000E+00 0.000E+00 0.109E+01     0.000   158.372
BERM   50 000500001   50    0 2003.11071E+03  1265.200   183.722   172.951     0.000  1017.034   769.833   116.621   143.374     0.000     0.000     0.000    24.205     0.000     0.000   924.716  2000.000   190.379   192.323     0.000   271.057  1116.719   463.379    76.451    10.130    15.779     4.481    10.816    12.683     5.627     4.657     0.000     0.000    95.084     0.000     0.000     0.000     0.000     0.000     0.000     0.000    16.146     3.016    -0.060     4.351     0.521   -20.336   -18.031     0.000    95.874    25.209     3.872     0.703     1.680     3.128     3.159     0.000     0.000     0.025     0.000     0.000   100.382    62.279     1.000     1.271     2.571     0.000 .00000E+00 .00000E+00 0.626E-01 0.388E+04 0.000E+00 0.000E+00 0.000E+00 0.000E+00 0.000E+00 0.316E+01     0.000   271.057
TUMI   51 000510001   51    0 2003.49295E+02  1281.200   126.300   118.053     0.000   990.694   643.658   174.885   178.498   131.149   131.247    75.178    23.579     0.000     0.000  1045.406  2157.433    66.737    66.740     0.000   416.415  1673.147   483.903    77.740    10.543    15.861     5.225    10.701    12.359   112.419   149.378     0.000     0.000     0.000     0.000     0.000     0.000     0.000     0.000     0.000     0.000     0.417     3.164    -0.978     0.132     0.542     0.091     0.269     0.000     2.145     0.697    25.528     3.166     8.104     0.001     0.352     0.780     0.000     0.004     0.000     0.000     8.384    68.211     0.000     0.435     0.564     0.309 .00000E+00 .00000E+00 0.130E-01 0.388E+04 0.000E+00 0.000E+00 0.000E+00 0.000E+00 0.000E+00 0.352E+00     0.000   416.415
BERM   52 000520001   52    0 2003.69569E+02  1333.800   182.737   171.399     0.000   961.883   734.745   149.050   179.499    28.077    24.356    13.951    22.893     0.000     0.000   948.775  2027.241   269.780   269.821     0.000   190.801   784.160   460.761    84.743     9.669    14.937     4.401    10.483    12.504     1.894     1.493     0.000     0.000    87.232     0.000     0.000     0.000     0.000     0.000     0.000     0.000    17.236     3.226     0.039     5.272     0.558   -19.660   -17.543     0.000    96.436    25.180     2.486     0.464     1.062     2.335     1.371     0.073     0.000     0.037     0.000     0.000    97.384    58.452     0.000     1.261     2.709     0.000 .00000E+00 .00000E+00 0.626E-01 0.388E+04 0.000E+00 0.000E+00 0.000E+00 0.000E+00 0.000E+00 0.137E+01     0.000   190.801
BERM   53 000530001   53    0 2003.16731E+03  1321.500   173.109   162.731     0.000   981.531   758.613   153.953   179.535    56.353    50.567    28.965    23.360     0.000     0.000   982.044  2072.830   283.690   281.288     0.000   139.856     0.000   421.432    85.493     9.683    15.102     4.265    10.428    12.410     0.722     0.648     0.000     0.000    85.565     0.000     0.000     0.000     0.000     0.000     0.000     0.000    17.824     3.270     0.072     5.532     0.565   -19.652   -17.524     0.000    97.492    25.349     1.528     0.275     0.641     1.181     1.012     0.560     0.000     0.042     0.000     0.000    97.503    56.972     0.000     1.270     2.741     0.000 .00000E+00 .00000E+00 0.626E-01 0.388E+04 0.000E+00 0.000E+00 0.000E+00 0.000E+00 0.000E+00 0.101E+01     0.000   139.856
BERM   54 000540001   54    0 2003.20861E+03  1265.200   183.755   172.974     0.000  1017.364   774.707   129.308   162.423     0.000     0.000     0.000    24.213     0.000     0.000   925.560  2001.152   199.770   201.871     0.000   244.572  1095.372   446.443    79.408    10.130    15.779     4.481    10.790    12.683     3.176     1.577     0.000     0.000    94.643     0.000     0.000     0.000     0.000     0.000     0.000     0.000    16.681     3.089    -0.033     5.319     0.534   -19.634   -17.403     0.000    96.090    25.242     2.931     0.565     1.281     3.223     3.055     0.000     0.000     0.027     0.000     0.000   100.382    62.272     1.000     1.273     2.575     0.000 .00000E+00 .00000E+00 0.626E-01 0.388E+04 0.000E+00 0.000E+00 0.000E+00 0.000E+00 0.000E+00 0.306E+01     0.000   244.572
BERM   55 000550001   55    0 2003.71462E+02  1326.800   157.122   146.883     0.000   971.590   753.841   152.087   179.627    63.447    57.660    33.028    23.124     0.000     0.000   970.655  2057.166   261.374   260.121     0.000   140.943   254.148   401.393    85.322     9.611    15.027     4.195    10.395    12.450     0.847     0.574     0.000     0.000    85.837     0.000     0.000     0.000     0.000     0.000     0.000     0.000    17.800     3.234     0.111     5.555     0.559   -19.370   -17.307     0.000    96.806    25.047     1.658     0.306     0.708     1.906     0.984     0.566     0.000     0.041     0.000     0.000    98.637    55.214     0.000     1.244     2.712     0.000 .00000E+00 .00000E+00 0.959E-01 0.388E+04 0.000E+00 0.000E+00 0.000E+00 0.000E+00 0.000E+00 0.984E+00     0.000   140.943
BERM   56 000560001   56    0 2003.49678E+02  1292.000   172.661   163.843     0.000  1014.497   779.876   149.894   179.437    16.664    13.861     7.940    24.145     0.000     0.000   941.261  2021.715   242.107   243.562     0.000   186.965  1046.425   430.607    84.253    10.130    15.779     4.481    10.770    12.503     2.301     1.357     0.000     0.000    88.720     0.000     0.000     0.000     0.000     0.000     0.000     0.000    17.142     3.221     0.013     4.788     0.556   -20.061   -17.846     0.000    96.519    25.249     2.826     0.504     1.215     1.581     2.106     0.121     0.000     0.036     0.000     0.000   100.382    60.876     1.000     1.274     2.593     0.000 .00000E+00 .00000E+00 0.647E-01 0.388E+04 0.000E+00 0.000E+00 0.000E+00 0.000E+00 0.000E+00 0.211E+01     0.000   186.965
BERM   57 000570001   57    0 2003.11567E+02  1340.200   169.512   159.319     0.000   981.335   763.909   155.347   179.587    63.024    56.851    32.564    23.356     0.000     0.000   983.646  2074.937   287.684   287.801     0.000   138.543  2194.234   426.668    85.725     9.683    15.102     4.265    10.466    12.575     0.786     0.834     0.000     0.000    87.350     0.000     0.000     0.000     0.000     0.000     0.000     0.000    17.822     3.286     0.066     6.418     0.569   -18.847   -16.817     0.000    96.831    25.208     1.613     0.319     0.649     2.669     1.045     0.665     0.000     0.053     0.000     0.000    97.503    57.903     0.000     1.261     2.755     0.000 .00000E+00 .00000E+00 0.626E-01 0.388E+04 0.000E+00 0.000E+00 0.000E+00 0.000E+00 0.000E+00 0.104E+01     0.000   138.543
BERM   58 000580001   58    0 2003.38020E+02  1302.500   167.759   157.460     0.000   973.586   748.156   150.225   179.485    34.085    29.609    16.960    23.171     0.000     0.000   947.254  2026.298   246.749   246.697     0.000   167.795  1598.575   414.661    84.832     9.611    15.027     4.195    10.350    12.614     1.933     0.814     0.000     0.000    86.811     0.000     0.000     0.000     0.000     0.000     0.000     0.000    17.325     3.202     0.059     4.940     0.554   -19.837   -17.697     0.000    96.908    25.092     2.368     0.444     1.007     1.614     1.293     0.194     0.000     0.038     0.000     0.000    98.637    55.101     0.000     1.246     2.683     0.000 .00000E+00 .00000E+00 0.680E-01 0.388E+04 0.000E+00 0.000E+00 0.000E+00 0.000E+00 0.000E+00 0.129E+01     0.000   167.795
BERM   59 000590001   59    0 2003.49034E+02  1281.200   148.703   139.292     0.000   990.117   772.048   151.168   179.093    21.227    18.451    10.569    23.565     0.000     0.000   939.437  2016.698   238.329   237.861     0.000   185.756     8.259   423.723    84.198    10.543    15.861     5.225    11.118    12.359     1.808     0.846     0.000     0.000    90.811     0.000     0.000     0.000     0.000     0.000     0.000     0.000    17.310     3.289     0.036     6.214     0.570   -19.722   -17.529     0.000    98.160    26.030     2.293     0.467     1.024     2.433     1.943     0.279     0.000     0.039     0.000     0.000    98.516    62.974     0.000     1.336     2.652     0.000 .00000E+00 .00000E+00 0.920E-01 0.388E+04 0.000E+00 0.000E+00 0.000E+00 0.000E+00 0.000E+00 0.194E+01     0.000   185.756
BERM   60 000600001   60    0 2003.48722E+02  1319.600   147.668   138.630     0.000   953.434   744.739   158.637   180.027   111.844   104.711    59.978    22.692     0.000     0.000  1009.820  2108.357   278.952   278.856     0.000    96.916   103.836   376.369    86.365     9.534    14.760     4.308    10.277    12.164     0.364     0.318     0.000     0.000    86.256     0.000     0.000     0.000     0.000     0.000     0.000     0.000    17.766     3.301     0.122     5.023     0.570   -19.943   -17.855     0.000    97.115    25.161     0.931     0.180     0.376     2.364     0.713     1.713     0.000     0.047     0.000     0.000    92.590    56.835     0.000     1.262     2.720     0.000 .00000E+00 .00000E+00 0.154E+00 0.388E+04 0.000E+00 0.000E+00 0.000E+00 0.000E+00 0.000E+00 0.713E+00     0.000    96.916
BERM   61 000610001   61    0 2003.30276E+01  1295.500   160.631   150.471     0.000   976.012   763.039   141.424   179.122    11.530     9.404     5.386    23.229     0.000     0.000   938.101  2013.897   219.338   219.888     0.000   205.063     0.000   425.005    82.568    10.627    15.749     5.505    11.256    12.389     2.604     1.589     0.000     0.000    90.452     0.000     0.000     0.000     0.000     0.000     0.000     0.000    17.100     3.287     0.012     6.128     0.570   -19.978   -17.736     0.000    98.140    26.247     2.624     0.529     1.114     1.841     2.329     0.032     0.000     0.048     0.000     0.000    97.376    64.999     0.000     1.353     2.751     0.000 .00000E+00 .00000E+00 0.626E-01 0.388E+04 0.000E+00 0.000E+00 0.000E+00 0.000E+00 0.000E+00 0.233E+01     0.000   205.063
BERM   62 000620001   62    0 2003.14782E+02  1322.600   158.242   149.334     0.000   962.022   733.166   146.532   179.498    22.368    18.764    10.748    22.896     0.000     0.000   943.093  2019.713   263.868   263.905     0.000   192.862   489.534   456.874    83.965     9.669    14.937     4.401    10.432    12.414     2.245     1.215     0.000     0.000    87.335     0.000     0.000     0.000     0.000     0.000     0.000     0.000    17.167     3.217     0.042     5.128     0.557   -19.724   -17.597     0.000    96.517    25.141     2.673     0.507     1.129     2.187     1.429     0.059     0.000     0.042     0.000     0.000    97.384    57.466     0.000     1.259     2.702     0.000 .00000E+00 .00000E+00 0.626E-01 0.388E+04 0.000E+00 0.000E+00 0.000E+00 0.000E+00 0.000E+00 0.143E+01     0.000   192.862
BERM   63 000630001   63    0 2003.10981E+03  1334.000   166.934   157.145     0.000   980.751   759.438   156.401   179.610    71.162    65.125    37.303    23.342     0.000     0.000   990.169  2083.537   292.191   291.171     0.000   128.578   394.766   420.119    85.983     9.683    15.102     4.265    10.481    12.504     0.703     0.631     0.000     0.000    86.948     0.000     0.000     0.000     0.000     0.000     0.000     0.000    17.858     3.299     0.075     5.596     0.570   -19.563   -17.477     0.000    97.139    25.286     1.514     0.276     0.635     2.251     0.955     0.782     0.000     0.044     0.000     0.000    97.503    58.289     0.000     1.265     2.745     0.000 .00000E+00 .00000E+00 0.626E-01 0.388E+04 0.000E+00 0.000E+00 0.000E+00 0.000E+00 0.000E+00 0.955E+00     0.000   128.578
BERM   64 000640001   64    0 2003.20063E+02  1346.200   171.681   161.494     0.000   981.117   762.781   150.541   179.498    42.717    37.423    21.436    23.351     0.000     0.000   965.243  2050.488   278.605   278.898     0.000   165.938   839.729   445.049    84.857     9.683    15.102     4.265    10.475    12.530     1.197     1.137     0.000     0.000    87.257     0.000     0.000     0.000     0.000     0.000     0.000     0.000    17.646     3.243     0.049     6.760     0.562   -18.526   -16.506     0.000    96.604    25.179     1.903     0.391     0.804     2.521     1.182     0.246     0.000     0.048     0.000     0.000    97.503    58.044     0.000     1.259     2.733     0.000 .00000E+00 .00000E+00 0.626E-01 0.388E+04 0.000E+00 0.000E+00 0.000E+00 0.000E+00 0.000E+00 0.118E+01     0.000   165.938
BERM   65 000650001   65    0 2003.43984E+02  1334.800   155.533   145.299     0.000   971.406   763.513   159.019   180.238   112.398   104.244    59.711    23.119     0.000     0.000  1010.670  2110.269   276.015   274.595     0.000    95.027   146.201   370.217    86.593     9.611    15.027     4.195    10.381    12.427     0.316     0.203     0.000     0.000    87.842     0.000     0.000     0.000     0.000     0.000     0.000     0.000    18.074     3.307     0.120     5.821     0.571   -19.340   -17.302     0.000    97.109    25.180     0.809     0.166     0.328     2.841     0.816     1.380     0.000     0.050     0.000     0.000    98.637    55.745     0.000     1.250     2.683     0.000 .00000E+00 .00000E+00 0.111E+00 0.388E+04 0.000E+00 0.000E+00 0.000E+00 0.000E+00 0.000E+00 0.816E+00     0.000    95.027
BERM   66 000660001   66    0 2003.19313E+01  1346.200   171.694   161.511     0.000   980.957   764.344   154.434   179.567    61.137    55.051    31.533    23.347     0.000     0.000   981.249  2071.721   286.863   287.029     0.000   144.629  8008.648   431.972    85.540     9.683    15.102     4.265    10.458    12.530     0.978     0.600     0.000     0.000    87.013     0.000     0.000     0.000     0.000     0.000     0.000     0.000    17.875     3.272     0.067     6.962     0.567   -18.404   -16.404     0.000    96.655    25.186     1.719     0.347     0.623     2.598     1.058     0.605     0.000     0.064     0.000     0.000    97.503    58.032     0.000     1.260     2.734     0.000 .00000E+00 .00000E+00 0.670E-01 0.388E+04 0.000E+00 0.000E+00 0.000E+00 0.000E+00 0.000E+00 0.106E+01     0.000   144.629
BERM   67 000670001   67    0 2003.13333E+02  1345.000   166.414   156.248     0.000   980.439   765.149   153.940   179.507    53.502    48.482    27.770    23.334     0.000     0.000   971.933  2059.301   281.177   281.770     0.000   149.374   295.093   431.420    85.462     9.683    15.102     4.265    10.479    12.568     1.184     0.581     0.000     0.000    85.822     0.000     0.000     0.000     0.000     0.000     0.000     0.000    17.748     3.271     0.068     5.897     0.566   -19.291   -17.221     0.000    97.238    25.268     1.914     0.373     0.788     1.446     1.063     0.446     0.000     0.048     0.000     0.000    97.503    57.936     0.000     1.264     2.724     0.000 .00000E+00 .00000E+00 0.626E-01 0.388E+04 0.000E+00 0.000E+00 0.000E+00 0.000E+00 0.000E+00 0.106E+01     0.000   149.374
TUMI   68 000680001   68    0 2003.63069E+02  1271.100   136.200   127.188     0.000   977.839   636.095   174.353   178.527   159.631   160.712    92.056    23.273     0.000     0.000  1081.456  2204.381    54.061    54.064     0.000   401.589   996.396   456.569    77.733    10.627    15.749     5.505    10.851    12.675    61.143   145.727     0.000     0.000     0.000     0.000     0.000     0.000     0.000     0.000     0.000     0.000     0.407     3.190    -0.992     0.129     0.547     0.010     0.226     0.000     2.085     0.681    14.806     1.835     4.688     0.001     0.330     0.857     0.000     0.003     0.000     0.000     9.077    69.146     0.000     0.423     0.564     0.301 .00000E+00 .00000E+00 0.858E-02 0.388E+04 0.000E+00 0.000E+00 0.000E+00 0.000E+00 0.000E+00 0.330E+00     0.000   401.589
BERM   69 000690001   69    0 2003.99706E+01  1314.700   169.875   159.500     0.000   972.990   742.991   135.143   179.487    11.052     8.071     4.623    23.157     0.000     0.000   931.827  2005.761   231.813   232.695     0.000   209.707  1050.651   442.448    81.466     9.611    15.027     4.195    10.438    12.388     3.150     1.347     0.000     0.000    87.288     0.000     0.000     0.000     0.000     0.000     0.000     0.000    17.117     3.138     0.051     4.991     0.543   -19.845   -17.706     0.000    96.643    25.157     2.889     0.551     1.218     1.445     1.552     0.037     0.000     0.040     0.000     0.000    98.637    55.406     0.000     1.249     2.708     0.000 .00000E+00 .00000E+00 0.626E-01 0.388E+04 0.000E+00 0.000E+00 0.000E+00 0.000E+00 0.000E+00 0.155E+01     0.000   209.707
TUWO   70 000700001   70    0 2003.67884E+02  1314.600   127.000   118.291     0.000  1042.297   637.976   149.699   158.340    29.661    29.885    17.118    24.807     0.000     0.000   945.866  2031.089    58.246    58.247     0.000   597.754   960.426   656.170    74.999    11.220    16.805     5.634    11.380    12.693   963.670   765.219     0.000     0.000     0.000     0.000     0.000     0.000     0.000     0.000     0.000     0.000     0.451     3.839    -1.196     0.145     0.658    -0.030     0.207     0.000     2.872     0.933    12.831     1.602     3.277     0.002     0.474     0.357     0.000     0.001     0.000     0.000     9.063    64.429     0.000     0.580     0.687     0.417 .00000E+00 .00000E+00 0.898E-02 0.370E+04 0.000E+00 0.000E+00 0.000E+00 0.000E+00 0.000E+00 0.474E+00     0.000   597.754
TUWO   71 000710001   71    0 2003.67294E+02  1273.800   147.700   136.939     0.000  1030.927   672.550   172.972   178.306    88.523    89.172    51.078    24.536     0.000     0.000  1010.032  2115.015    37.202    37.204     0.000   479.897   299.672   517.609    76.737    11.308    16.801     5.815    11.310    12.479    93.214   214.286     0.000     0.000     0.000     0.000     0.000     0.000     0.000     0.000     0.000     0.000     0.399     3.267    -1.032     0.128     0.560     0.034     0.255     0.000     2.197     0.714    12.936     1.607     4.152     0.001     0.393     0.620     0.000     0.001     0.000     0.000     9.161    69.310     0.000     0.445     0.636     0.320 .00000E+00 .00000E+00 0.773E-02 0.388E+04 0.000E+00 0.000E+00 0.000E+00 0.000E+00 0.000E+00 0.393E+00     0.000   479.897
TUMI   72 000720001   72    0 2003.10533E+03  1258.400   143.100   132.360     0.000  1030.137   664.247   173.221   178.312   116.249   117.682    67.408    24.517     0.000     0.000  1038.949  2153.326    43.954    43.958     0.000   437.062   161.972   481.690    76.833    11.308    16.801     5.815    11.353    12.686    82.329   160.671     0.000     0.000     0.000     0.000     0.000     0.000     0.000     0.000     0.000     0.000     0.394     3.275    -1.035     0.125     0.561     0.051     0.268     0.000     2.116     0.688    14.545     1.803     4.649     0.001     0.376     0.753     0.000     0.002     0.000     0.000     9.161    69.824     0.000     0.428     0.581     0.308 .00000E+00 .00000E+00 0.145E-01 0.388E+04 0.000E+00 0.000E+00 0.000E+00 0.000E+00 0.000E+00 0.376E+00     0.000   437.062
BERM   73 000730001   73    0 2003.27515E+03  1277.900   161.063   150.982     0.000  1039.690   789.422   126.284   157.292     0.000     0.000     0.000    24.745     0.000     0.000   923.285  2000.855   197.341   199.876     0.000   231.435   173.112   431.311    78.000    11.220    16.805     5.634    11.741    12.594     2.236     2.612     0.000     0.000    97.706     0.000     0.000     0.000     0.000     0.000     0.000     0.000    17.115     3.239     0.034     7.260     0.564   -19.522   -17.223     0.000    98.854    26.699     2.513     0.537     1.286     3.268     3.442     0.000     0.000     0.033     0.000     0.000    97.468    70.623     0.000     1.386     2.651     0.000 .00000E+00 .00000E+00 0.694E-01 0.388E+04 0.000E+00 0.000E+00 0.000E+00 0.000E+00 0.000E+00 0.344E+01     0.000   231.435
BERM   74 000740001   74    0 2003.13556E+03  1253.200   165.561   153.872     0.000   980.125   758.896   138.280   179.107     2.062     0.982     0.563    23.327     0.000     0.000   932.213  2006.484   206.848   207.726     0.000   215.122   434.715   422.853    81.616    10.627    15.749     5.505    11.312    12.638     2.208     0.812     0.000     0.000    96.250     0.000     0.000     0.000     0.000     0.000     0.000     0.000    16.998     3.213    -0.029     7.476     0.558   -19.001   -16.780     0.000    98.607    26.321     2.298     0.529     1.079     3.106     3.084     0.007     0.000     0.035     0.000     0.000    97.376    64.971     0.000     1.356     2.675     0.000 .00000E+00 .00000E+00 0.695E-01 0.388E+04 0.000E+00 0.000E+00 0.000E+00 0.000E+00 0.000E+00 0.308E+01     0.000   215.122
BERM   75 000750001   75    0 2003.12236E+03  1258.400   179.053   168.768     0.000  1016.924   769.583   129.941   163.971     0.000     0.000     0.000    24.203     0.000     0.000   925.219  2000.656   199.481   201.259     0.000   242.605     0.000   443.864    79.612    10.130    15.779     4.481    10.799    12.623     3.253     2.267     0.000     0.000    96.474     0.000     0.000     0.000     0.000     0.000     0.000     0.000    16.627     3.095    -0.041     5.282     0.535   -19.560   -17.332     0.000    96.566    25.141     2.907     0.569     1.280     3.746     3.193     0.000     0.000     0.028     0.000     0.000   100.382    60.017     1.000     1.269     2.587     0.000 .00000E+00 .00000E+00 0.670E-01 0.388E+04 0.000E+00 0.000E+00 0.000E+00 0.000E+00 0.000E+00 0.319E+01     0.000   242.605
BERM   76 000760001   76    0 2003.56379E+02  1275.100   178.767   169.434     0.000  1015.903   783.937   134.341   173.911     0.000     0.000     0.000    24.178     0.000     0.000   927.097  2003.051   199.577   199.783     0.000   227.953   116.603   427.736    80.591    10.130    15.779     4.481    10.761    12.633     3.048     2.478     0.000     0.000    92.098     0.000     0.000     0.000     0.000     0.000     0.000     0.000    16.835     3.145    -0.025     4.779     0.544   -20.137   -17.897     0.000    96.165    25.328     2.874     0.535     1.221     2.856     2.498     0.000     0.000     0.029     0.000     0.000   100.382    62.591     1.000     1.277     2.600     0.000 .00000E+00 .00000E+00 0.626E-01 0.388E+04 0.000E+00 0.000E+00 0.000E+00 0.000E+00 0.000E+00 0.250E+01     0.000   227.953
BERM   77 000770001   77    0 2003.77624E+02  1292.400   183.789   173.049     0.000  1015.964   782.692   157.679   179.482    66.360    63.068    36.126    24.180     0.000     0.000   994.908  2093.075   260.324   259.830     0.000   135.790     0.000   395.979    85.318    10.130    15.779     4.481    10.673    12.498     0.557     0.324     0.000     0.000    89.094     0.000     0.000     0.000     0.000     0.000     0.000     0.000    17.591     3.288     0.055     5.854     0.568   -19.339   -17.196     0.000    96.742    25.274     1.214     0.231     0.521     2.332     1.739     1.201     0.000     0.045     0.000     0.000   100.382    60.705     1.000     1.275     2.583     0.000 .00000E+00 .00000E+00 0.626E-01 0.388E+04 0.000E+00 0.000E+00 0.000E+00 0.000E+00 0.000E+00 0.174E+01     0.000   135.790
BERM   78 000780001   78    0 2003.55921E+02  1268.500   176.398   167.061     0.000  1016.042   785.701   149.025   179.430    17.698    15.205     8.709    24.182     0.000     0.000   943.767  2025.193   221.818   221.873     0.000   183.424  1223.081   405.384    83.817    10.130    15.779     4.481    10.708    12.488     2.409     1.110     0.000     0.000    91.865     0.000     0.000     0.000     0.000     0.000     0.000     0.000    16.908     3.213    -0.019     5.075     0.555   -19.596   -17.426     0.000    96.078    24.985     2.633     0.490     1.131     3.701     2.073     0.312     0.000     0.033     0.000     0.000   100.382    61.141     1.000     1.261     2.617     0.000 .00000E+00 .00000E+00 0.660E-01 0.388E+04 0.000E+00 0.000E+00 0.000E+00 0.000E+00 0.000E+00 0.207E+01     0.000   183.424
TUMI   79 000790001   79    0 2003.81876E+02  1262.400   129.000   119.959     0.000   979.120   638.256   173.895   178.519    96.202    95.287    54.581    23.303     0.000     0.000  1018.612  2121.082    60.286    60.289     0.000   453.343     0.000   514.175    77.522    10.627    15.749     5.505    10.827    12.557   140.978   188.463     0.000     0.000     0.000     0.000     0.000     0.000     0.000     0.000     0.000     0.000     0.399     3.172    -0.993     0.127     0.544     0.026     0.245     0.000     2.224     0.724    15.653     1.947     5.031     0.001     0.368     0.623     0.000     0.002     0.000     0.000     9.077    67.650     0.000     0.450     0.577     0.320 .00000E+00 .00000E+00 0.124E-01 0.388E+04 0.000E+00 0.000E+00 0.000E+00 0.000E+00 0.000E+00 0.368E+00     0.000   453.343
BERM   80 000800001   80    0 2003.61560E+02  1263.400   159.970   149.732     0.000   978.782   764.018   151.733   179.111    29.255    26.851    15.380    23.295     0.000     0.000   957.974  2040.552   220.870   220.543     0.000   174.024     0.000   394.720    84.577    10.627    15.749     5.505    11.236    12.542     1.216     0.517     0.000     0.000    93.841     0.000     0.000     0.000     0.000     0.000     0.000     0.000    17.334     3.332     0.008     6.866     0.578   -19.441   -17.247     0.000    98.378    26.250     1.854     0.382     0.839     2.855     2.602     0.576     0.000     0.039     0.000     0.000    97.376    63.998     0.000     1.353     2.697     0.000 .00000E+00 .00000E+00 0.685E-01 0.388E+04 0.000E+00 0.000E+00 0.000E+00 0.000E+00 0.000E+00 0.260E+01     0.000   174.024
BERM   81 000810001   81    0 2003.61322E+02  1273.800   161.168   150.942     0.000   978.313   764.534   152.396   179.111    29.262    26.733    15.313    23.284     0.000     0.000   958.255  2040.878   226.899   227.162     0.000   176.819   321.133   404.133    84.767    10.627    15.749     5.505    11.264    12.503     1.154     0.827     0.000     0.000    93.070     0.000     0.000     0.000     0.000     0.000     0.000     0.000    17.354     3.339     0.020     6.493     0.578   -19.617   -17.426     0.000    98.385    26.130     1.877     0.370     0.838     2.577     2.532     0.508     0.000     0.040     0.000     0.000    97.376    64.193     0.000     1.347     2.714     0.000 .00000E+00 .00000E+00 0.626E-01 0.388E+04 0.000E+00 0.000E+00 0.000E+00 0.000E+00 0.000E+00 0.253E+01     0.000   176.819
BERM   82 000820001   82    0 2003.14168E+03  1283.600   179.840   170.081     0.000  1015.760   789.573   149.944   179.431    17.166    15.202     8.708    24.175     0.000     0.000   945.884  2027.974   231.760   231.558     0.000   183.808   471.376   415.452    84.065    10.130    15.779     4.481    10.696    12.449     1.681     1.416     0.000     0.000    88.259     0.000     0.000     0.000     0.000     0.000     0.000     0.000    17.276     3.220     0.013     5.056     0.557   -19.673   -17.494     0.000    96.422    25.044     2.314     0.418     0.984     1.964     1.850     0.217     0.000     0.033     0.000     0.000   100.382    60.131     1.000     1.264     2.561     0.000 .00000E+00 .00000E+00 0.626E-01 0.388E+04 0.000E+00 0.000E+00 0.000E+00 0.000E+00 0.000E+00 0.185E+01     0.000   183.808
BERM   83 000830001   83    0 2003.13441E+03  1273.000   165.221   154.992     0.000   978.419   767.398   154.375   179.113    44.385    41.361    23.692    23.286     0.000     0.000   968.481  2054.464   225.233   225.218     0.000   163.918   540.512   389.372    85.103    10.627    15.749     5.505    11.257    12.490     1.012     0.527     0.000     0.000    93.522     0.000     0.000     0.000     0.000     0.000     0.000     0.000    17.437     3.349     0.023     6.922     0.580   -19.419   -17.252     0.000    98.765    26.253     1.755     0.349     0.794     2.697     2.385     0.944     0.000     0.039     0.000     0.000    97.376    64.190     0.000     1.353     2.727     0.000 .00000E+00 .00000E+00 0.667E-01 0.388E+04 0.000E+00 0.000E+00 0.000E+00 0.000E+00 0.000E+00 0.239E+01     0.000   163.918
BERM   84 000840001   84    0 2003.18508E+03  1288.700   173.642   163.400     0.000  1015.338   784.085   152.134   179.435    24.008    21.807    12.491    24.165     0.000     0.000   949.580  2032.841   241.818   242.894     0.000   180.106   669.978   423.124    84.625    10.130    15.779     4.481    10.766    12.499     1.657     0.880     0.000     0.000    87.973     0.000     0.000     0.000     0.000     0.000     0.000     0.000    17.276     3.244     0.019     4.838     0.560   -20.013   -17.804     0.000    96.724    25.223     2.432     0.425     1.040     1.730     1.763     0.330     0.000     0.033     0.000     0.000   100.382    59.653     1.000     1.272     2.611     0.000 .00000E+00 .00000E+00 0.626E-01 0.388E+04 0.000E+00 0.000E+00 0.000E+00 0.000E+00 0.000E+00 0.176E+01     0.000   180.106
BERM   85 000850001   85    0 2003.88601E+02  1299.800   173.309   164.485     0.000  1014.711   780.745   152.287   179.437    22.779    20.212    11.577    24.150     0.000     0.000   950.090  2033.456   253.572   254.456     0.000   178.340   187.984   432.912    84.747    10.130    15.779     4.481    10.769    12.665     1.552     1.514     0.000     0.000    88.991     0.000     0.000     0.000     0.000     0.000     0.000     0.000    17.296     3.250     0.027     4.963     0.561   -19.996   -17.791     0.000    96.627    25.308     2.350     0.419     0.997     1.540     2.158     0.290     0.000     0.037     0.000     0.000   100.382    60.911     1.000     1.277     2.606     0.000 .00000E+00 .00000E+00 0.626E-01 0.388E+04 0.000E+00 0.000E+00 0.000E+00 0.000E+00 0.000E+00 0.216E+01     0.000   178.340
BERM   86 000860001   86    0 2003.64542E+02  1284.300   163.693   153.489     0.000   977.542   766.816   154.802   179.116    44.224    41.325    23.671    23.266     0.000     0.000   968.762  2054.749   232.860   233.447     0.000   162.362   272.669   396.044    85.283    10.627    15.749     5.505    11.250    12.530     1.078     0.825     0.000     0.000    92.672     0.000     0.000     0.000     0.000     0.000     0.000     0.000    17.411     3.356     0.032     6.467     0.581   -19.760   -17.563     0.000    98.570    26.245     1.943     0.373     0.862     2.269     2.440     0.766     0.000     0.042     0.000     0.000    97.376    65.543     0.000     1.353     2.714     0.000 .00000E+00 .00000E+00 0.626E-01 0.388E+04 0.000E+00 0.000E+00 0.000E+00 0.000E+00 0.000E+00 0.244E+01     0.000   162.362
BERM   87 000870001   87    0 2003.63476E+02  1284.300   163.698   153.502     0.000   977.265   766.615   154.827   179.117    44.324    41.424    23.728    23.259     0.000     0.000   968.865  2054.861   232.924   233.584     0.000   162.416     0.796   396.237    85.288    10.627    15.749     5.505    11.250    12.530     1.209     0.825     0.000     0.000    92.703     0.000     0.000     0.000     0.000     0.000     0.000     0.000    17.363     3.353     0.025     6.452     0.581   -19.766   -17.568     0.000    98.556    26.243     2.047     0.396     0.912     2.270     2.439     0.767     0.000     0.041     0.000     0.000    97.376    65.554     0.000     1.353     2.714     0.000 .00000E+00 .00000E+00 0.626E-01 0.388E+04 0.000E+00 0.000E+00 0.000E+00 0.000E+00 0.000E+00 0.244E+01     0.000   162.416
BERM   88 000880001   88    0 2003.75994E+02  1299.800   173.298   164.486     0.000  1014.220   782.223   156.121   179.439    43.407    40.355    23.115    24.138     0.000     0.000   967.495  2056.511   261.148   262.036     0.000   156.195   531.585   418.461    85.327    10.130    15.779     4.481    10.757    12.665     1.086     1.039     0.000     0.000    88.490     0.000     0.000     0.000     0.000     0.000     0.000     0.000    17.484     3.278     0.043     5.111     0.566   -19.916   -17.732     0.000    96.695    25.317     1.968     0.350     0.831     1.523     1.938     0.729     0.000     0.040     0.000     0.000   100.382    60.894     1.000     1.277     2.605     0.000 .00000E+00 .00000E+00 0.626E-01 0.388E+04 0.000E+00 0.000E+00 0.000E+00 0.000E+00 0.000E+00 0.194E+01     0.000   156.195
BERM   89 000890001   89    0 2003.46680E+02  1289.300   154.439   144.195     0.000   976.871   764.048   153.563   179.117    40.019    37.176    21.294    23.250     0.000     0.000   962.228  2046.011   237.053   236.824     0.000   160.155     0.000   397.192    85.060    10.627    15.749     5.505    11.247    12.488     0.996     0.388     0.000     0.000    91.532     0.000     0.000     0.000     0.000     0.000     0.000     0.000    17.466     3.359     0.041     6.982     0.582   -19.262   -17.114     0.000    98.548    26.139     1.700     0.350     0.760     2.341     2.175     0.609     0.000     0.044     0.000     0.000    97.376    64.788     0.000     1.348     2.673     0.000 .00000E+00 .00000E+00 0.626E-01 0.388E+04 0.000E+00 0.000E+00 0.000E+00 0.000E+00 0.000E+00 0.217E+01     0.000   160.155
BERM   90 000900001   90    0 2003.85958E+02  1276.500   148.079   138.636     0.000   991.352   772.826   150.470   179.083    19.641    17.195     9.849    23.594     0.000     0.000   941.876  2020.059   229.168   228.327     0.000   189.083     0.000   417.509    84.032    10.543    15.861     5.225    11.091    12.384     1.350     1.021     0.000     0.000    90.743     0.000     0.000     0.000     0.000     0.000     0.000     0.000    17.380     3.293     0.031     6.817     0.571   -18.983   -16.840     0.000    98.311    25.743     1.836     0.386     0.849     2.072     2.130     0.284     0.000     0.039     0.000     0.000    98.516    62.144     0.000     1.322     2.661     0.000 .00000E+00 .00000E+00 0.783E-01 0.388E+04 0.000E+00 0.000E+00 0.000E+00 0.000E+00 0.000E+00 0.213E+01     0.000   189.083
BERM   91 000910001   91    0 2003.47573E+02  1286.600   150.448   142.098     0.000   990.705   775.108   157.933   179.091    56.657    53.137    30.437    23.579     0.000     0.000   969.943  2057.253   247.109   246.408     0.000   149.314     0.000   396.025    85.486    10.543    15.861     5.225    11.055    12.237     0.678     0.491     0.000     0.000    91.460     0.000     0.000     0.000     0.000     0.000     0.000     0.000    17.645     3.354     0.062     6.939     0.581   -18.996   -16.891     0.000    98.299    25.804     1.305     0.268     0.579     2.428     2.002     1.116     0.000     0.047     0.000     0.000    98.516    62.021     0.000     1.324     2.666     0.000 .00000E+00 .00000E+00 0.667E-01 0.388E+04 0.000E+00 0.000E+00 0.000E+00 0.000E+00 0.000E+00 0.200E+01     0.000   149.314
BERM   92 000920001   92    0 2003.10723E+03  1305.500   169.547   160.751     0.000  1013.590   784.033   158.804   179.563    68.780    64.068    36.698    24.123     0.000     0.000   987.174  2082.573   271.263   272.118     0.000   130.131   517.306   402.614    85.810    10.130    15.779     4.481    10.746    12.539     0.735     0.631     0.000     0.000    86.697     0.000     0.000     0.000     0.000     0.000     0.000     0.000    17.517     3.310     0.055     5.710     0.572   -19.413   -17.271     0.000    96.696    25.257     1.535     0.281     0.671     1.407     1.503     1.059     0.000     0.043     0.000     0.000   100.382    60.737     1.000     1.274     2.581     0.000 .00000E+00 .00000E+00 0.634E-01 0.388E+04 0.000E+00 0.000E+00 0.000E+00 0.000E+00 0.000E+00 0.150E+01     0.000   130.131
BERM   93 000930001   93    0 2003.54873E+02  1293.100   154.113   143.918     0.000   976.497   766.603   157.078   179.131    64.413    60.733    34.788    23.241     0.000     0.000   986.170  2077.758   248.908   249.633     0.000   137.131   121.541   387.110    85.674    10.627    15.749     5.505    11.223    12.458     0.822     0.405     0.000     0.000    88.807     0.000     0.000     0.000     0.000     0.000     0.000     0.000    17.563     3.376     0.045     6.976     0.585   -19.417   -17.247     0.000    98.580    26.278     1.561     0.313     0.692     1.390     1.717     1.045     0.000     0.046     0.000     0.000    97.376    65.755     0.000     1.354     2.750     0.000 .00000E+00 .00000E+00 0.626E-01 0.388E+04 0.000E+00 0.000E+00 0.000E+00 0.000E+00 0.000E+00 0.172E+01     0.000   137.131
BERM   94 000940001   94    0 2003.11684E+03  1312.700   171.989   162.716     0.000  1013.626   783.761   158.498   179.568    71.299    66.634    38.168    24.124     0.000     0.000   991.871  2088.814   278.631   278.768     0.000   128.507   428.487   407.655    85.699    10.130    15.779     4.481    10.735    12.527     0.707     0.672     0.000     0.000    86.594     0.000     0.000     0.000     0.000     0.000     0.000     0.000    17.663     3.313     0.064     5.364     0.572   -19.773   -17.612     0.000    96.825    25.346     1.545     0.275     0.657     1.764     1.247     1.022     0.000     0.043     0.000     0.000   100.382    60.923     1.000     1.279     2.603     0.000 .00000E+00 .00000E+00 0.626E-01 0.388E+04 0.000E+00 0.000E+00 0.000E+00 0.000E+00 0.000E+00 0.125E+01     0.000   128.507
BERM   95 000950001   95    0 2003.69423E+02  1286.600   150.459   142.123     0.000   990.172   774.491   157.400   179.090    52.703    49.307    28.243    23.566     0.000     0.000   966.813  2053.047   246.246   245.592     0.000   153.305     0.000   399.178    85.397    10.543    15.861     5.225    11.055    12.237     0.769     0.527     0.000     0.000    91.567     0.000     0.000     0.000     0.000     0.000     0.000     0.000    17.604     3.349     0.057     6.926     0.580   -18.998   -16.890     0.000    98.284    25.802     1.397     0.286     0.628     2.436     2.048     1.019     0.000     0.045     0.000     0.000    98.516    62.028     0.000     1.324     2.666     0.000 .00000E+00 .00000E+00 0.664E-01 0.388E+04 0.000E+00 0.000E+00 0.000E+00 0.000E+00 0.000E+00 0.205E+01     0.000   153.305
[...]
BERM  116 001160001  116    0 20.3.10961E+03  1156.899   125.478   119.955     0.000  1027.351   752.780    96.185   127.755     7.065     7.065     4.047    24.451     0.000     0.000   514.845  2081.466   202.661   202.688     0.000   191.298     0.000   394.027    71.734    10.580    16.237     4.923    11.812    12.759     1.496     1.085     0.000     0.000   135.092     0.000     0.000     0.000     0.000     0.000     0.000     0.000    40.679     3.251     2.406    16.108     0.623   -24.570   -22.616     0.000   151.441    38.693     3.901     0.969     1.787     3.675     3.859     0.260     0.000     0.061     0.000    10.450    72.338    39.487     0.015     1.867     3.180     0.000 .00000E+00 .00000E+00 0.153E+01 0.000E+00 0.000E+00 0.000E+00 0.000E+00 0.000E+00 0.000E+00 0.386E+01     0.000   191.298
BERM  117 001170001  117    0 20.3.66191E+02  1152.399   122.925   117.350     0.000  1027.042   762.403   109.725   155.944    25.601    25.601    14.664    24.444     0.000     0.000   687.131  2309.956   216.042   216.080     0.000   144.631   408.035   360.856    74.502    10.580    16.237     4.923    11.700    12.771     0.697     0.456     0.000     0.000   132.921     0.000     0.000     0.000     0.000     0.000     0.000     0.000    44.882     3.505     3.070    17.922     0.689   -24.037   -22.134     0.000   153.873    39.603     2.380     0.610     1.101     3.910     3.114     1.191     0.000     0.081     0.000     8.104    72.338    39.849     0.016     1.916     3.180     0.000 .00000E+00 .00000E+00 0.153E+01 0.000E+00 0.000E+00 0.000E+00 0.000E+00 0.000E+00 0.000E+00 0.311E+01     0.000   144.631
BERM  118 001180001  118    0 20.3.47181E+02  1164.306   126.678   120.746     0.000  1037.028   766.878   114.257   164.544    42.297    42.297    24.228    24.681     0.000     0.000   849.284  2531.612   227.170   227.250     0.000   124.538    27.178   352.030    75.480    10.686    16.393     4.978    11.698    12.797     0.405     0.296     0.000     0.000   131.401     0.000     0.000     0.000     0.000     0.000     0.000     0.000    51.075     3.710     3.653    22.065     0.758   -23.149   -21.337     0.000   156.558    42.003     1.590     0.441     0.813     3.932     2.808     2.835     0.000     0.117     0.000     9.503    62.977    38.603     0.063     1.933     3.191     0.000 .00000E+00 .00000E+00 0.153E+01 0.000E+00 0.000E+00 0.000E+00 0.000E+00 0.000E+00 0.000E+00 0.281E+01     0.000   124.538
BERM  119 001190001  119    0 20.3.79273E+02  1152.133   122.115   116.580     0.000  1022.715   752.409   107.402   143.667    19.493    19.493    11.166    24.341     0.000     0.000   635.619  2238.139   214.336   214.366     0.000   162.795     0.000   377.273    74.036    10.767    16.307     5.227    11.808    12.768     0.769     0.605     0.000     0.000   132.298     0.000     0.000     0.000     0.000     0.000     0.000     0.000    47.692     3.547     3.205    18.830     0.704   -23.456   -21.611     0.000   154.144    39.757     2.602     0.675     1.245     4.011     3.601     0.965     0.000     0.084     0.000     7.996    62.709    39.474     0.016     1.925     3.187     0.000 .00000E+00 .00000E+00 0.153E+01 0.000E+00 0.000E+00 0.000E+00 0.000E+00 0.000E+00 0.000E+00 0.360E+01     0.000   162.795
BERM  120 001200001  120    0 20.3.51977E+02  1157.199   126.280   120.207     0.000  1037.297   765.327   113.848   168.121    44.191    44.191    25.313    24.688     0.000     0.000   865.888  2553.850   224.503   224.576     0.000   119.702   197.621   344.530    75.415    10.686    16.393     4.978    11.711    12.792     0.375     0.289     0.000     0.000   131.538     0.000     0.000     0.000     0.000     0.000     0.000     0.000    50.304     3.683     3.594    21.791     0.751   -23.300   -21.472     0.000   156.216    41.929     1.470     0.409     0.744     3.940     2.711     2.938     0.000     0.114     0.000     9.599    62.977    38.480     0.062     1.925     3.193     0.000 .00000E+00 .00000E+00 0.153E+01 0.000E+00 0.000E+00 0.000E+00 0.000E+00 0.000E+00 0.000E+00 0.271E+01     0.000   119.702
BERM  121 001210001  121    0 20.3.69059E+02  1150.864   122.824   117.184     0.000  1022.512   754.018   114.930   169.663    46.323    46.323    26.534    24.336     0.000     0.000   890.941  2576.938   224.672   224.713     0.000   122.426   330.390   347.403    75.539    10.766    16.306     5.227    11.764    12.809     0.404     0.264     0.000     0.000   128.668     0.000     0.000     0.000     0.000     0.000     0.000     0.000    51.120     3.733     3.736    20.168     0.752   -22.621   -20.866     0.000   154.353    39.942     1.574     0.417     0.758     3.626     2.805     3.114     0.000     0.104     0.000     8.541    62.709    39.518     0.015     1.934     3.187     0.000 .00000E+00 .00000E+00 0.153E+01 0.000E+00 0.000E+00 0.000E+00 0.000E+00 0.000E+00 0.000E+00 0.280E+01     0.000   122.426
BERM  122 001220001  122    0 20.3.13184E+03  1172.264   127.519   121.505     0.000  1037.548   770.587   116.536   169.921    60.388    60.388    34.590    24.694     0.000     0.000  1018.287  2756.331   233.832   233.892     0.000   104.038   340.160   338.274    75.918    10.686    16.393     4.978    11.692    12.832     0.268     0.193     0.000     0.000   132.144     0.000     0.000     0.000     0.000     0.000     0.000     0.000    52.523     3.786     3.878    22.881     0.779   -23.098   -21.310     0.000   158.449    42.568     1.093     0.307     0.556     3.882     2.404     4.297     0.000     0.126     0.000     8.633    62.977    38.317     0.064     1.958     3.206     0.000 .00000E+00 .00000E+00 0.173E+01 0.000E+00 0.000E+00 0.000E+00 0.000E+00 0.000E+00 0.000E+00 0.240E+01     0.000   104.038
BERM  123 001230001  123    0 20.3.47215E+02  1157.583   125.230   119.472     0.000  1022.938   758.996   117.984   171.288    60.837    60.837    34.847    24.346     0.000     0.000  1019.496  2747.894   230.596   230.639     0.000   104.292     0.000   335.278    76.098    10.766    16.306     5.227    11.739    12.811     0.258     0.174     0.000     0.000   130.880     0.000     0.000     0.000     0.000     0.000     0.000     0.000    49.326     3.725     3.628    19.928     0.750   -23.096   -21.302     0.000   155.471    40.201     1.040     0.284     0.485     3.780     2.396     3.859     0.000     0.108     0.000     7.340    62.709    39.476     0.015     1.947     3.190     0.000 .00000E+00 .00000E+00 0.155E+01 0.000E+00 0.000E+00 0.000E+00 0.000E+00 0.000E+00 0.000E+00 0.240E+01     0.000   104.292
BERM  124 001240001  124    0 20.3.46326E+02  1151.779   123.877   118.329     0.000  1026.600   721.571    73.513    84.321     0.121     0.121     0.069    24.433     0.000     0.000   454.924  2001.389   179.283   179.337     0.000   248.844   201.246   428.182    67.255    10.580    16.237     4.923    11.887    12.779     4.053     3.265     0.000     0.000   134.042     0.000     0.000     0.000     0.000     0.000     0.000     0.000    35.707     2.894     1.770    12.409     0.532   -25.198   -23.132     0.000   143.559    36.425     5.766     1.292     2.455     3.847     4.741     0.004     0.000     0.041     0.000    18.913    72.338    39.377     0.015     1.710     3.117     0.000 .00000E+00 .00000E+00 0.153E+01 0.000E+00 0.000E+00 0.000E+00 0.000E+00 0.000E+00 0.000E+00 0.474E+01     0.000   248.844
BERM  125 001250001  125    0 20.3.99109E+02  1151.508   122.419   116.677     0.000  1022.253   753.732   115.870   168.845    49.766    49.766    28.506    24.330     0.000     0.000   923.930  2620.551   226.552   226.640     0.000   118.178   147.476   345.102    75.713    10.766    16.306     5.227    11.750    12.808     0.318     0.213     0.000     0.000   129.309     0.000     0.000     0.000     0.000     0.000     0.000     0.000    50.611     3.740     3.715    20.077     0.754   -22.675   -20.913     0.000   154.116    39.916     1.257     0.335     0.598     4.014     2.691     3.315     0.000     0.105     0.000     8.338    62.709    39.586     0.014     1.933     3.189     0.000 .00000E+00 .00000E+00 0.153E+01 0.000E+00 0.000E+00 0.000E+00 0.000E+00 0.000E+00 0.000E+00 0.269E+01     0.000   118.178
BERM  126 001260001  126    0 20.3.60294E+02  1152.148   123.547   117.977     0.000  1026.860   756.382   103.304   138.796    13.701    13.701     7.848    24.439     0.000     0.000   577.694  2164.551   209.245   209.341     0.000   169.257   468.049   378.675    73.242    10.580    16.237     4.923    11.758    12.786     1.031     0.699     0.000     0.000   133.629     0.000     0.000     0.000     0.000     0.000     0.000     0.000    43.509     3.396     2.823    17.146     0.660   -24.183   -22.261     0.000   152.538    39.139     3.161     0.795     1.464     3.975     3.578     0.559     0.000     0.072     0.000     9.482    72.338    39.899     0.016     1.890     3.172     0.000 .00000E+00 .00000E+00 0.153E+01 0.000E+00 0.000E+00 0.000E+00 0.000E+00 0.000E+00 0.000E+00 0.358E+01     0.000   169.257
BERM  127 001270001  127    0 20.3.95675E+02  1145.823   118.437   113.163     0.000  1021.821   752.724   110.324   155.574    26.358    26.358    15.098    24.319     0.000     0.000   703.608  2327.764   217.351   217.356     0.000   145.715   361.634   363.222    74.624    10.767    16.308     5.227    11.769    12.698     0.644     0.479     0.000     0.000   129.745     0.000     0.000     0.000     0.000     0.000     0.000     0.000    48.790     3.603     3.359    19.415     0.719   -22.941   -21.170     0.000   153.482    39.669     2.229     0.578     1.079     3.746     3.254     1.502     0.000     0.088     0.000     8.183    62.709    39.420     0.015     1.921     3.176     0.000 .00000E+00 .00000E+00 0.154E+01 0.000E+00 0.000E+00 0.000E+00 0.000E+00 0.000E+00 0.000E+00 0.325E+01     0.000   145.715
BERM  128 001280001  128    0 20.3.92288E+02  1146.998   120.765   115.300     0.000  1026.193   745.916    91.642   116.110     4.750     4.750     2.721    24.423     0.000     0.000   495.345  2054.765   194.383   194.388     0.000   198.510   574.416   392.925    70.873    10.580    16.237     4.923    11.834    12.701     1.729     1.307     0.000     0.000   134.843     0.000     0.000     0.000     0.000     0.000     0.000     0.000    39.307     3.174     2.270    15.153     0.603   -24.770   -22.772     0.000   149.550    38.163     4.095     0.995     1.877     3.728     4.074     0.152     0.000     0.055     0.000    12.438    72.338    39.701     0.016     1.830     3.152     0.000 .00000E+00 .00000E+00 0.153E+01 0.000E+00 0.000E+00 0.000E+00 0.000E+00 0.000E+00 0.000E+00 0.407E+01     0.000   198.510
BERM  129 001290001  129    0 20.3.10380E+03  1146.580   122.076   116.575     0.000  1026.202   714.640    68.248    80.969     0.000     0.000     0.000    24.424     0.000     0.000   454.086  2000.000   172.982   173.066     0.000   256.551   232.324   429.617    66.275    10.580    16.237     4.923    11.898    12.696     4.475     3.611     0.000     0.000   133.204     0.000     0.000     0.000     0.000     0.000     0.000     0.000    35.185     2.834     1.728    11.658     0.517   -24.951   -22.909     0.000   141.977    35.562     5.902     1.271     2.453     3.748     4.902     0.000     0.000     0.036     0.000    20.518    72.338    39.003     0.014     1.678     3.091     0.000 .00000E+00 .00000E+00 0.153E+01 0.000E+00 0.000E+00 0.000E+00 0.000E+00 0.000E+00 0.000E+00 0.490E+01     0.000   256.551
BERM  130 001300001  130    0 20.3.74558E+02  1146.398   118.643   113.261     0.000  1021.309   753.102   111.086   158.585    28.961    28.961    16.589    24.307     0.000     0.000   726.445  2357.723   217.533   217.522     0.000   143.113    85.937   360.801    74.761    10.767    16.308     5.227    11.765    12.698     0.500     0.408     0.000     0.000   130.476     0.000     0.000     0.000     0.000     0.000     0.000     0.000    48.447     3.623     3.387    19.573     0.724   -22.815   -21.063     0.000   153.898    39.647     1.826     0.479     0.869     3.710     3.239     1.673     0.000     0.091     0.000     7.945    62.709    39.395     0.015     1.922     3.180     0.000 .00000E+00 .00000E+00 0.153E+01 0.000E+00 0.000E+00 0.000E+00 0.000E+00 0.000E+00 0.000E+00 0.324E+01     0.000   143.113
BERM  131 001310001  131    0 20.3.15440E+03  1148.065   118.152   112.804     0.000  1021.418   755.426   117.080   171.043    63.045    63.045    36.112    24.310     0.000     0.000  1047.484  2783.979   227.765   227.802     0.000    98.634   289.101   326.796    75.940    10.766    16.305     5.227    11.721    12.684     0.223     0.183     0.000     0.000   128.749     0.000     0.000     0.000     0.000     0.000     0.000     0.000    49.784     3.732     3.654    20.165     0.751   -22.416   -20.702     0.000   153.497    39.680     0.883     0.241     0.422     3.981     2.206     4.326     0.000     0.106     0.000     7.749    62.709    39.222     0.014     1.921     3.176     0.000 .00000E+00 .00000E+00 0.162E+01 0.000E+00 0.000E+00 0.000E+00 0.000E+00 0.000E+00 0.000E+00 0.221E+01     0.000    98.634
BERM  132 001320001  132    0 20.3.10758E+03  1146.998   120.831   115.362     0.000  1025.694   752.126    97.092   127.424     7.913     7.913     4.532    24.412     0.000     0.000   523.247  2091.448   199.649   199.651     0.000   183.627     0.000   383.322    71.984    10.580    16.237     4.923    11.806    12.701     1.294     1.035     0.000     0.000   134.407     0.000     0.000     0.000     0.000     0.000     0.000     0.000    41.427     3.286     2.552    16.114     0.631   -24.493   -22.537     0.000   151.221    38.635     3.546     0.870     1.637     3.846     3.854     0.300     0.000     0.061     0.000    10.544    72.338    39.714     0.016     1.863     3.163     0.000 .00000E+00 .00000E+00 0.153E+01 0.000E+00 0.000E+00 0.000E+00 0.000E+00 0.000E+00 0.000E+00 0.385E+01     0.000   183.627
BERM  133 001330001  133    0 20.3.73436E+02  1146.895   121.210   115.743     0.000  1021.149   758.782   117.472   172.455    61.228    61.228    35.071    24.303     0.000     0.000  1026.260  2755.590   225.623   225.618     0.000    98.051   135.075   324.017    75.991    10.767    16.308     5.227    11.736    12.720     0.226     0.177     0.000     0.000   130.729     0.000     0.000     0.000     0.000     0.000     0.000     0.000    49.945     3.748     3.665    20.292     0.755   -22.807   -21.068     0.000   155.792    40.174     0.908     0.247     0.421     3.710     2.309     4.229     0.000     0.106     0.000     6.741    62.709    39.221     0.016     1.949     3.193     0.000 .00000E+00 .00000E+00 0.171E+01 0.000E+00 0.000E+00 0.000E+00 0.000E+00 0.000E+00 0.000E+00 0.231E+01     0.000    98.051
BERM  134 001340001  134    0 20.3.21515E+03  1142.714   116.645   111.422     0.000  1020.962   755.369   115.319   171.122    50.145    50.145    28.723    24.299     0.000     0.000   924.123  2619.892   221.466   221.495     0.000   112.124   196.253   333.905    75.604    10.767    16.308     5.227    11.717    12.651     0.276     0.213     0.000     0.000   129.579     0.000     0.000     0.000     0.000     0.000     0.000     0.000    49.476     3.695     3.604    19.605     0.739   -22.726   -20.982     0.000   153.860    39.560     1.070     0.281     0.509     3.896     2.566     3.468     0.000     0.096     0.000     7.651    62.709    39.228     0.015     1.917     3.176     0.000 .00000E+00 .00000E+00 0.168E+01 0.000E+00 0.000E+00 0.000E+00 0.000E+00 0.000E+00 0.000E+00 0.257E+01     0.000   112.124
BERM  135 001350001  135    0 20.3.45757E+02  1141.022   119.714   114.282     0.000  1025.016   757.355   100.987   136.988    11.697    11.697     6.700    24.395     0.000     0.000   558.290  2137.491   198.923   198.992     0.000   169.447   117.830   368.507    72.783    10.580    16.236     4.923    11.770    12.632     0.949     0.720     0.000     0.000   133.343     0.000     0.000     0.000     0.000     0.000     0.000     0.000    43.611     3.381     2.885    16.791     0.656   -24.123   -22.211     0.000   152.319    38.798     2.939     0.729     1.356     3.633     3.781     0.487     0.000     0.068     0.000     9.128    72.338    39.309     0.016     1.876     3.171     0.000 .00000E+00 .00000E+00 0.153E+01 0.000E+00 0.000E+00 0.000E+00 0.000E+00 0.000E+00 0.000E+00 0.378E+01     0.000   169.447
BERM  136 001360001  136    0 20.3.92515E+02  1143.860   119.155   113.906     0.000  1020.352   758.853   117.250   172.739    60.756    60.756    34.801    24.284     0.000     0.000  1021.149  2748.266   223.148   223.187     0.000    97.869     7.390   321.403    75.962    10.767    16.308     5.227    11.727    12.681     0.234     0.160     0.000     0.000   130.398     0.000     0.000     0.000     0.000     0.000     0.000     0.000    49.875     3.738     3.661    20.052     0.750   -22.765   -21.029     0.000   155.185    39.942     0.933     0.252     0.433     3.686     2.335     4.391     0.000     0.102     0.000     6.702    62.709    39.277     0.016     1.938     3.176     0.000 .00000E+00 .00000E+00 0.163E+01 0.000E+00 0.000E+00 0.000E+00 0.000E+00 0.000E+00 0.000E+00 0.234E+01     0.000    97.869
BERM  137 001370001  137    0 20.3.13378E+03  1141.022   119.766   114.341     0.000  1024.474   761.858   106.817   149.481    18.968    18.968    10.865    24.382     0.000     0.000   627.185  2228.571   204.958   205.029     0.000   151.512    15.670   356.649    73.939    10.580    16.236     4.923    11.712    12.632     0.733     0.515     0.000     0.000   132.625     0.000     0.000     0.000     0.000     0.000     0.000     0.000    44.834     3.469     3.073    17.500     0.679   -23.938   -22.052     0.000   153.311    39.167     2.434     0.608     1.131     3.664     3.427     0.841     0.000     0.073     0.000     7.981    72.338    39.343     0.016     1.895     3.178     0.000 .00000E+00 .00000E+00 0.153E+01 0.000E+00 0.000E+00 0.000E+00 0.000E+00 0.000E+00 0.000E+00 0.343E+01     0.000   151.512
BERM  138 001380001  138    0 20.3.71124E+02  1131.077   118.779   112.963     0.000  1009.135   752.315   115.590   173.825    51.297    51.297    29.383    24.017     0.000     0.000   931.270  2622.180   211.105   211.183     0.000   112.525   118.834   324.000    75.623    10.719    16.103     5.335    11.698    12.620     0.259     0.197     0.000     0.000   130.862     0.000     0.000     0.000     0.000     0.000     0.000     0.000    50.499     3.736     3.731    20.095     0.751   -22.758   -21.020     0.000   156.069    39.988     1.023     0.274     0.474     3.742     2.594     3.527     0.000     0.098     0.000     6.067    58.970    37.855     0.017     1.942     3.222     0.000 .00000E+00 .00000E+00 0.193E+01 0.000E+00 0.000E+00 0.000E+00 0.000E+00 0.000E+00 0.000E+00 0.259E+01     0.000   112.525
BERM  139 001390001  139    0 20.3.91214E+02  1135.745   117.683   111.970     0.000  1008.971   750.499   115.794   172.252    52.277    52.277    29.944    24.014     0.000     0.000   941.999  2636.286   215.574   215.629     0.000   113.187     0.000   329.114    75.675    10.720    16.104     5.335    11.698    12.695     0.277     0.211     0.000     0.000   131.384     0.000     0.000     0.000     0.000     0.000     0.000     0.000    52.212     3.761     3.796    20.178     0.753   -22.837   -21.107     0.000   156.383    40.116     1.098     0.287     0.505     4.244     2.658     3.655     0.000     0.098     0.000     6.689    58.970    38.641     0.017     1.951     3.199     0.000 .00000E+00 .00000E+00 0.199E+01 0.000E+00 0.000E+00 0.840E+03 0.546E+05 0.000E+00 0.000E+00 0.266E+01     0.000   113.187
